Info: SIMULATION PARAMETERS:
Info: TIMESTEP               2
Info: NUMBER OF STEPS        0
Info: STEPS PER CYCLE        10
Info: FIRST LDB TIMESTEP     50
Info: LAST LDB TIMESTEP     -1
Info: HOM BACKGROUND SCALING 1
Info: MIN ATOMS PER PATCH    40
Info: INITIAL TEMPERATURE    300
Info: CENTER OF MASS MOVING INITIALLY? NO
Info: DIELECTRIC             1
Info: EXCLUDE                SCALED ONE-FOUR
Info: 1-4 ELECTROSTATICS SCALED BY 1
Info: MODIFIED 1-4 VDW PARAMETERS WILL BE USED
Info: DCD FILENAME           eegbis100ps.dcd
Info: DCD FREQUENCY          5000
Info: DCD FIRST STEP         5000
Info: XST FILENAME           eegbis100ps.xst
Info: XST FREQUENCY          5000
Info: NO VELOCITY DCD OUTPUT
Info: NO FORCE DCD OUTPUT
Info: OUTPUT FILENAME        eegbis100ps
Info: BINARY OUTPUT FILES WILL BE USED
Info: RESTART FILENAME       eegbis100ps.restart
Info: RESTART FREQUENCY      1000
Info: BINARY RESTART FILES WILL BE USED
Info: SWITCHING ACTIVE
Info: SWITCHING ON           13
Info: SWITCHING OFF          14
Info: PAIRLIST DISTANCE      16
Info: PAIRLIST SHRINK RATE   0.01
Info: PAIRLIST GROW RATE     0.01
Info: PAIRLIST TRIGGER       0.3
Info: PAIRLISTS PER CYCLE    2
Info: PAIRLISTS ENABLED
Info: MARGIN                 0
Info: HYDROGEN GROUP CUTOFF  2.5
Info: PATCH DIMENSION        18.5
Info: ENERGY OUTPUT STEPS    1000
Info: CROSSTERM ENERGY INCLUDED IN DIHEDRAL
Info: TIMING OUTPUT STEPS    10000
Info: PRESSURE OUTPUT STEPS  1000
Info: GBIS GENERALIZED BORN IMPLICIT SOLVENT ACTIVE
Info: GBIS SOLVENT DIELECTRIC: 78.5
Info: GBIS PROTEIN DIELECTRIC: 1
Info: GBIS COULOMB RADIUS OFFSET: 0.09 Ang
Info: GBIS ION CONCENTRATION: 0 M
Info: GBIS DEBYE SCREENING LENGTH: inf Ang
Info: GBIS DELTA: 1
Info: GBIS BETA: 0.8
Info: GBIS GAMMA: 4.85
Info: GBIS BORN RADIUS CUTOFF: 12 Ang
Info: GBIS MAX BORN RADIUS: 30 Ang
Info: LANGEVIN DYNAMICS ACTIVE
Info: LANGEVIN TEMPERATURE   300
Info: LANGEVIN DAMPING COEFFICIENT IS 1 INVERSE PS
Info: LANGEVIN DYNAMICS NOT APPLIED TO HYDROGENS
Info: USING VERLET I (r-RESPA) MTS SCHEME.
Info: C1 SPLITTING OF LONG RANGE ELECTROSTATICS
Info: PLACING ATOMS IN PATCHES BY HYDROGEN GROUPS
Info: RIGID BONDS TO HYDROGEN : ALL
Info:         ERROR TOLERANCE : 1e-08
Info:          MAX ITERATIONS : 100
Info: RIGID WATER USING SETTLE ALGORITHM
Info: RANDOM NUMBER SEED     1345690115
Info: USE HYDROGEN BONDS?    NO
Info: COORDINATE PDB         nm.pdb
Info: STRUCTURE FILE         nm.psf
Info: PARAMETER file: CHARMM format!
Info: PARAMETERS             ../../reso/toppar/par_all27_prot_lipid.prm
Info: USING ARITHMETIC MEAN TO COMBINE L-J SIGMA PARAMETERS
Info: SUMMARY OF PARAMETERS:
Info: 180 BONDS
Info: 447 ANGLES
Info: 566 DIHEDRAL
Info: 46 IMPROPER
Info: 6 CROSSTERM
Info: 114 VDW
Info: 0 VDW_PAIRS
Info: 0 NBTHOLE_PAIRS
Info: STRUCTURE SUMMARY:
Info: 135 ATOMS
Info: 137 BONDS
Info: 240 ANGLES
Info: 349 DIHEDRALS
Info: 25 IMPROPERS
Info: 8 CROSSTERMS
Info: 0 EXCLUSIONS
Info: 62 RIGID BONDS
Info: 343 DEGREES OF FREEDOM
Info: 73 HYDROGEN GROUPS
Info: 4 ATOMS IN LARGEST HYDROGEN GROUP
Info: 73 MIGRATION GROUPS
Info: 4 ATOMS IN LARGEST MIGRATION GROUP
Info: TOTAL MASS = 1025.06 amu
Info: TOTAL CHARGE = -1 e
Info: REMOVING COM VELOCITY 0.0638553 0.191087 -0.643255
Info: NONBONDED TABLE R-SQUARED SPACING: 0.0625
Info: NONBONDED TABLE SIZE: 769 POINTS
TCL: Minimizing for 1000 steps
ETITLE: TS BOND ANGLE DIHED IMPRP ELECT VDW BOUNDARY MISC KINETIC TOTAL TEMP POTENTIAL TOTAL3 TEMPAVG
ENERGY: 0 248.2657 278.6487 36.4440 0.0331 -183.9491 336.3263 0.0000 0.0000 0.0000 715.7687 0.0000 715.7687 715.7687 0.0000
ENERGY: 200 10.3288 24.6629 33.9592 0.5849 -213.0504 -7.4270 0.0000 0.0000 0.0000 -150.9416 0.0000 -150.9416 -150.9416 0.0000
ENERGY: 400 10.7125 25.6352 31.4517 0.4913 -216.4933 -9.7580 0.0000 0.0000 0.0000 -157.9605 0.0000 -157.9605 -157.9605 0.0000
ENERGY: 600 10.1613 23.6344 29.8515 0.3524 -217.5016 -9.8312 0.0000 0.0000 0.0000 -163.3333 0.0000 -163.3333 -163.3333 0.0000
ENERGY: 800 10.2972 24.2297 28.7510 0.3736 -219.0535 -11.0055 0.0000 0.0000 0.0000 -166.4074 0.0000 -166.4074 -166.4074 0.0000
ENERGY: 1000 10.3574 25.2445 27.8702 0.3262 -219.9112 -11.6338 0.0000 0.0000 0.0000 -167.7465 0.0000 -167.7465 -167.7465 0.0000
TCL: Running for 49000 steps
ETITLE: TS BOND ANGLE DIHED IMPRP ELECT VDW BOUNDARY MISC KINETIC TOTAL TEMP POTENTIAL TOTAL3 TEMPAVG
ENERGY: 1000 10.1880 25.2478 27.8677 0.3262 -219.5467 -11.6185 0.0000 0.0000 99.9625 -67.5732 293.3143 -167.5356 -67.6109 293.3143
ENERGY: 11000 34.3371 64.3431 44.9972 3.8376 -216.4452 2.0154 0.0000 0.0000 106.7821 39.8673 313.3249 -66.9148 41.2483 305.4617
ENERGY: 21000 29.4698 87.7724 36.9083 5.7080 -228.1033 4.7313 0.0000 0.0000 97.7796 34.2661 286.9094 -63.5135 34.6392 316.4764
ENERGY: 30000 33.2300 76.4957 41.3875 2.8298 -231.3965 2.9791 0.0000 0.0000 103.0868 28.6123 302.4818 -74.4745 30.1738 308.9271
ENERGY: 40000 36.2475 71.1188 39.8180 6.5630 -224.6733 -3.1300 0.0000 0.0000 100.0379 25.9820 293.5358 -74.0560 26.7800 301.8724
ENERGY: 50000 35.1354 69.8837 49.5864 6.0017 -221.0371 -8.6068 0.0000 0.0000 104.5042 35.4674 306.6407 -69.0367 36.0046 311.3322
