Info: SIMULATION PARAMETERS:
Info: TIMESTEP               2
Info: NUMBER OF STEPS        0
Info: STEPS PER CYCLE        10
Info: PERIODIC CELL BASIS 1  24 0 0
Info: PERIODIC CELL BASIS 2  0 20 0
Info: PERIODIC CELL BASIS 3  0 0 50
Info: PERIODIC CELL CENTER   2.42 -0.44 16.59
Info: WRAPPING WATERS AROUND PERIODIC BOUNDARIES ON OUTPUT.
Info: WRAPPING ALL CLUSTERS AROUND PERIODIC BOUNDARIES ON OUTPUT.
Info: FIRST LDB TIMESTEP     50
Info: LAST LDB TIMESTEP     -1
Info: HOM BACKGROUND SCALING 1
Info: PME BACKGROUND SCALING 1
Info: MIN ATOMS PER PATCH    40
Info: INITIAL TEMPERATURE    300
Info: CENTER OF MASS MOVING INITIALLY? NO
Info: DIELECTRIC             1
Info: EXCLUDE                SCALED ONE-FOUR
Info: 1-4 ELECTROSTATICS SCALED BY 1
Info: MODIFIED 1-4 VDW PARAMETERS WILL BE USED
Info: DCD FILENAME           emineq.dcd
Info: DCD FREQUENCY          100
Info: DCD FIRST STEP         100
Info: DCD FILE WILL CONTAIN UNIT CELL DATA
Info: XST FILENAME           emineq.xst
Info: XST FREQUENCY          1000
Info: NO VELOCITY DCD OUTPUT
Info: NO FORCE DCD OUTPUT
Info: OUTPUT FILENAME        emineq
Info: RESTART FILENAME       emineq.restart
Info: RESTART FREQUENCY      1000
Info: BINARY RESTART FILES WILL BE USED
Info: SWITCHING ACTIVE
Info: SWITCHING ON           9
Info: SWITCHING OFF          10
Info: PAIRLIST DISTANCE      12
Info: PAIRLIST SHRINK RATE   0.01
Info: PAIRLIST GROW RATE     0.01
Info: PAIRLIST TRIGGER       0.3
Info: PAIRLISTS PER CYCLE    2
Info: PAIRLISTS ENABLED
Info: MARGIN                 0.435
Info: HYDROGEN GROUP CUTOFF  2.5
Info: PATCH DIMENSION        14.935
Info: ENERGY OUTPUT STEPS    1000
Info: CROSSTERM ENERGY INCLUDED IN DIHEDRAL
Info: TIMING OUTPUT STEPS    10000
Info: PRESSURE OUTPUT STEPS  1000
Info: FIXED ATOMS ACTIVE
Info: LANGEVIN DYNAMICS ACTIVE
Info: LANGEVIN TEMPERATURE   300
Info: LANGEVIN DAMPING COEFFICIENT IS 1 INVERSE PS
Info: LANGEVIN DYNAMICS NOT APPLIED TO HYDROGENS
Info: LANGEVIN PISTON PRESSURE CONTROL ACTIVE
Info:        TARGET PRESSURE IS 1.01325 BAR
Info:     OSCILLATION PERIOD IS 100 FS
Info:             DECAY TIME IS 50 FS
Info:     PISTON TEMPERATURE IS 300 K
Info:       PRESSURE CONTROL IS GROUP-BASED
Info:    INITIAL STRAIN RATE IS 0 0 0
Info:       CELL FLUCTUATION IS ISOTROPIC
Info: PARTICLE MESH EWALD (PME) ACTIVE
Info: PME TOLERANCE               1e-06
Info: PME EWALD COEFFICIENT       0.312341
Info: PME INTERPOLATION ORDER     4
Info: PME GRID DIMENSIONS         24 20 50
Info: PME MAXIMUM GRID SPACING    1
Info: FULL ELECTROSTATIC EVALUATION FREQUENCY      2
Info: USING VERLET I (r-RESPA) MTS SCHEME.
Info: C1 SPLITTING OF LONG RANGE ELECTROSTATICS
Info: PLACING ATOMS IN PATCHES BY HYDROGEN GROUPS
Info: RIGID BONDS TO HYDROGEN : ALL
Info:         ERROR TOLERANCE : 1e-08
Info:          MAX ITERATIONS : 100
Info: RIGID WATER USING SETTLE ALGORITHM
Info: RANDOM NUMBER SEED     1361483645
Info: USE HYDROGEN BONDS?    NO
Info: COORDINATE PDB         wb2.pdb
Info: STRUCTURE FILE         wb2.psf
Info: PARAMETER file: CHARMM format!
Info: PARAMETERS             ../../reso/toppar/par_all27_prot_lipid.prm
Info: USING ARITHMETIC MEAN TO COMBINE L-J SIGMA PARAMETERS
Info: SUMMARY OF PARAMETERS:
Info: 180 BONDS
Info: 447 ANGLES
Info: 566 DIHEDRAL
Info: 46 IMPROPER
Info: 6 CROSSTERM
Info: 114 VDW
Info: 0 VDW_PAIRS
Info: 0 NBTHOLE_PAIRS
Info: STRUCTURE SUMMARY:
Info: 1838 ATOMS
Info: 1259 BONDS
Info: 761 ANGLES
Info: 251 DIHEDRALS
Info: 22 IMPROPERS
Info: 0 CROSSTERMS
Info: 0 EXCLUSIONS
Info: 2 FIXED ATOMS
Info: 1787 RIGID BONDS
Info: 0 RIGID BONDS BETWEEN FIXED ATOMS
Info: 3721 DEGREES OF FREEDOM
Info: 629 HYDROGEN GROUPS
Info: 4 ATOMS IN LARGEST HYDROGEN GROUP
Info: 629 MIGRATION GROUPS
Info: 4 ATOMS IN LARGEST MIGRATION GROUP
Info: 0 HYDROGEN GROUPS WITH ALL ATOMS FIXED
Info: TOTAL MASS = 11140.7 amu
Info: TOTAL CHARGE = 6.70552e-08 e
Info: MASS DENSITY = 0.770835 g/cm^3
Info: ATOM DENSITY = 0.0765833 atoms/A^3
Info: REMOVING COM VELOCITY -0.0668062 0.034097 -0.0217638
Info: NONBONDED TABLE R-SQUARED SPACING: 0.0625
Info: NONBONDED TABLE SIZE: 705 POINTS
TCL: Minimizing for 1000 steps
ETITLE: TS BOND ANGLE DIHED IMPRP ELECT VDW BOUNDARY MISC KINETIC TOTAL TEMP POTENTIAL TOTAL3 TEMPAVG PRESSURE GPRESSURE VOLUME PRESSAVG GPRESSAVG
ENERGY: 0 567.2054 183.1428 25.4984 2.5015 -4944.3156 165755.8876 0.0000 0.0000 0.0000 161589.9201 0.0000 161589.9201 161589.9201 0.0000 1913215.9279 1917930.0088 24000.0000 1913215.9279 1917930.0088
ENERGY: 200 182.7389 155.9647 22.7087 0.6691 -6717.1475 542.5596 0.0000 0.0000 0.0000 -5812.5066 0.0000 -5812.5066 -5812.5066 0.0000 -5445.6348 -5581.4659 24000.0000 -5445.6348 -5581.4659
ENERGY: 400 224.8134 170.4193 20.3749 0.5072 -7507.4093 809.5107 0.0000 0.0000 0.0000 -6281.7839 0.0000 -6281.7839 -6281.7839 0.0000 -4587.0895 -4266.6830 24000.0000 -4587.0895 -4266.6830
ENERGY: 600 229.2616 178.8255 19.8556 0.3864 -7860.1890 928.2406 0.0000 0.0000 0.0000 -6503.6194 0.0000 -6503.6194 -6503.6194 0.0000 -3661.7406 -3888.5278 24000.0000 -3661.7406 -3888.5278
ENERGY: 800 242.5243 177.1665 19.8319 0.5179 -8055.0315 978.1377 0.0000 0.0000 0.0000 -6636.8532 0.0000 -6636.8532 -6636.8532 0.0000 -3850.0830 -3867.9305 24000.0000 -3850.0830 -3867.9305
ENERGY: 1000 251.8278 178.2021 19.2921 0.4559 -8228.6667 1031.0895 0.0000 0.0000 0.0000 -6747.7992 0.0000 -6747.7992 -6747.7992 0.0000 -3467.8693 -3387.2176 24000.0000 -3467.8693 -3387.2176
TCL: Running for 49000 steps
ETITLE: TS BOND ANGLE DIHED IMPRP ELECT VDW BOUNDARY MISC KINETIC TOTAL TEMP POTENTIAL TOTAL3 TEMPAVG PRESSURE GPRESSURE VOLUME PRESSAVG GPRESSAVG
ENERGY: 1000 5.4883 21.1642 19.2900 0.4565 -7413.3015 1013.3846 0.0000 0.0000 0.0000 -6353.5177 0.0000 -6353.5177 -6353.7714 0.0000 -1141.3598 -1114.0762 24000.0000 -1141.3598 -1114.0762
ENERGY: 11000 27.5535 56.2563 30.0311 9.1410 -6212.1077 583.2943 0.0000 0.0000 1132.6692 -4373.1622 306.3612 -5505.8314 -4370.2046 305.1206 -452.9014 -426.2615 18377.7352 16.1792 15.9659
ENERGY: 21000 22.5795 51.5918 24.6851 2.3099 -6271.4208 645.0456 0.0000 0.0000 1115.8011 -4409.4077 301.7988 -5525.2088 -4407.6229 300.6512 1699.0640 1764.8746 18402.6614 22.5713 22.5633
ENERGY: 30000 18.5178 61.5314 30.0140 2.6637 -6170.9691 555.0857 0.0000 0.0000 1147.2231 -4355.9335 310.2977 -5503.1566 -4352.3715 299.3702 -914.4642 -862.0289 18364.4264 -9.5617 -9.4693
ENERGY: 40000 16.3232 50.2663 32.1068 3.7289 -6370.4120 632.3219 0.0000 0.0000 1088.9264 -4546.7386 294.5298 -5635.6650 -4543.2430 290.7298 1034.2318 1094.1786 17682.3112 15.9705 15.8738
ENERGY: 50000 20.1952 60.5513 29.4864 3.1455 -6229.3459 570.4305 0.0000 0.0000 1131.9323 -4413.6048 306.1619 -5545.5371 -4409.9019 300.6517 -86.8745 -39.2549 18235.6271 20.3462 19.5889
