Info: SIMULATION PARAMETERS:
Info: TIMESTEP               2
Info: NUMBER OF STEPS        0
Info: STEPS PER CYCLE        10
Info: PERIODIC CELL BASIS 1  24 0 0
Info: PERIODIC CELL BASIS 2  0 20 0
Info: PERIODIC CELL BASIS 3  0 0 54
Info: PERIODIC CELL CENTER   2.4 -0.4 17
Info: WRAPPING WATERS AROUND PERIODIC BOUNDARIES ON OUTPUT.
Info: WRAPPING ALL CLUSTERS AROUND PERIODIC BOUNDARIES ON OUTPUT.
Info: FIRST LDB TIMESTEP     50
Info: LAST LDB TIMESTEP     -1
Info: HOM BACKGROUND SCALING 1
Info: PME BACKGROUND SCALING 1
Info: MIN ATOMS PER PATCH    40
Info: INITIAL TEMPERATURE    300
Info: CENTER OF MASS MOVING INITIALLY? NO
Info: DIELECTRIC             1
Info: EXCLUDE                SCALED ONE-FOUR
Info: 1-4 ELECTROSTATICS SCALED BY 1
Info: MODIFIED 1-4 VDW PARAMETERS WILL BE USED
Info: DCD FILENAME           emineq.dcd
Info: DCD FREQUENCY          100
Info: DCD FIRST STEP         100
Info: DCD FILE WILL CONTAIN UNIT CELL DATA
Info: XST FILENAME           emineq.xst
Info: XST FREQUENCY          1000
Info: NO VELOCITY DCD OUTPUT
Info: NO FORCE DCD OUTPUT
Info: OUTPUT FILENAME        emineq
Info: RESTART FILENAME       emineq.restart
Info: RESTART FREQUENCY      1000
Info: BINARY RESTART FILES WILL BE USED
Info: SWITCHING ACTIVE
Info: SWITCHING ON           9
Info: SWITCHING OFF          10
Info: PAIRLIST DISTANCE      12
Info: PAIRLIST SHRINK RATE   0.01
Info: PAIRLIST GROW RATE     0.01
Info: PAIRLIST TRIGGER       0.3
Info: PAIRLISTS PER CYCLE    2
Info: PAIRLISTS ENABLED
Info: MARGIN                 0.435
Info: HYDROGEN GROUP CUTOFF  2.5
Info: PATCH DIMENSION        14.935
Info: ENERGY OUTPUT STEPS    1000
Info: CROSSTERM ENERGY INCLUDED IN DIHEDRAL
Info: TIMING OUTPUT STEPS    10000
Info: PRESSURE OUTPUT STEPS  1000
Info: FIXED ATOMS ACTIVE
Info: LANGEVIN DYNAMICS ACTIVE
Info: LANGEVIN TEMPERATURE   300
Info: LANGEVIN DAMPING COEFFICIENT IS 1 INVERSE PS
Info: LANGEVIN DYNAMICS NOT APPLIED TO HYDROGENS
Info: LANGEVIN PISTON PRESSURE CONTROL ACTIVE
Info:        TARGET PRESSURE IS 1.01325 BAR
Info:     OSCILLATION PERIOD IS 100 FS
Info:             DECAY TIME IS 50 FS
Info:     PISTON TEMPERATURE IS 300 K
Info:       PRESSURE CONTROL IS GROUP-BASED
Info:    INITIAL STRAIN RATE IS 0 0 0
Info:       CELL FLUCTUATION IS ISOTROPIC
Info: PARTICLE MESH EWALD (PME) ACTIVE
Info: PME TOLERANCE               1e-06
Info: PME EWALD COEFFICIENT       0.312341
Info: PME INTERPOLATION ORDER     4
Info: PME GRID DIMENSIONS         24 20 54
Info: PME MAXIMUM GRID SPACING    1
Info: FULL ELECTROSTATIC EVALUATION FREQUENCY      2
Info: USING VERLET I (r-RESPA) MTS SCHEME.
Info: C1 SPLITTING OF LONG RANGE ELECTROSTATICS
Info: PLACING ATOMS IN PATCHES BY HYDROGEN GROUPS
Info: RIGID BONDS TO HYDROGEN : ALL
Info:         ERROR TOLERANCE : 1e-08
Info:          MAX ITERATIONS : 100
Info: RIGID WATER USING SETTLE ALGORITHM
Info: RANDOM NUMBER SEED     1361562864
Info: USE HYDROGEN BONDS?    NO
Info: COORDINATE PDB         wb3.pdb
Info: STRUCTURE FILE         wb3.psf
Info: PARAMETER file: CHARMM format!
Info: PARAMETERS             ../../reso/toppar/par_all27_prot_lipid.prm
Info: USING ARITHMETIC MEAN TO COMBINE L-J SIGMA PARAMETERS
Info: SUMMARY OF PARAMETERS:
Info: 180 BONDS
Info: 447 ANGLES
Info: 566 DIHEDRAL
Info: 46 IMPROPER
Info: 6 CROSSTERM
Info: 114 VDW
Info: 0 VDW_PAIRS
Info: 0 NBTHOLE_PAIRS
Info: STRUCTURE SUMMARY:
Info: 2012 ATOMS
Info: 1375 BONDS
Info: 819 ANGLES
Info: 251 DIHEDRALS
Info: 22 IMPROPERS
Info: 0 CROSSTERMS
Info: 0 EXCLUSIONS
Info: 2 FIXED ATOMS
Info: 1961 RIGID BONDS
Info: 0 RIGID BONDS BETWEEN FIXED ATOMS
Info: 4069 DEGREES OF FREEDOM
Info: 687 HYDROGEN GROUPS
Info: 4 ATOMS IN LARGEST HYDROGEN GROUP
Info: 687 MIGRATION GROUPS
Info: 4 ATOMS IN LARGEST MIGRATION GROUP
Info: 0 HYDROGEN GROUPS WITH ALL ATOMS FIXED
Info: TOTAL MASS = 12185.6 amu
Info: TOTAL CHARGE = 6.70552e-08 e
Info: MASS DENSITY = 0.780678 g/cm^3
Info: ATOM DENSITY = 0.0776235 atoms/A^3
Info: REMOVING COM VELOCITY -0.199968 0.177392 -0.167444
Info: NONBONDED TABLE R-SQUARED SPACING: 0.0625
Info: NONBONDED TABLE SIZE: 705 POINTS
TCL: Minimizing for 1000 steps
ETITLE: TS BOND ANGLE DIHED IMPRP ELECT VDW BOUNDARY MISC KINETIC TOTAL TEMP POTENTIAL TOTAL3 TEMPAVG PRESSURE GPRESSURE VOLUME PRESSAVG GPRESSAVG
ENERGY: 0 627.6441 194.1371 25.4984 2.5015 -5478.8132 215895.5432 0.0000 0.0000 0.0000 211266.5110 0.0000 211266.5110 211266.5110 0.0000 2307420.4072 2313661.8185 25920.0000 2307420.4072 2313661.8185
ENERGY: 200 221.9806 193.6783 22.2234 0.5851 -7570.4654 619.9782 0.0000 0.0000 0.0000 -6512.0196 0.0000 -6512.0196 -6512.0196 0.0000 -6452.4873 -5823.2349 25920.0000 -6452.4873 -5823.2349
ENERGY: 400 237.5730 182.2241 21.8331 0.5896 -8341.6099 877.0654 0.0000 0.0000 0.0000 -7022.3248 0.0000 -7022.3248 -7022.3248 0.0000 -4603.7578 -4814.7938 25920.0000 -4603.7578 -4814.7938
ENERGY: 600 263.3551 191.5557 20.9817 0.4883 -8837.4088 1069.3859 0.0000 0.0000 0.0000 -7291.6422 0.0000 -7291.6422 -7291.6422 0.0000 -3712.3628 -3707.8319 25920.0000 -3712.3628 -3707.8319
ENERGY: 800 275.4546 195.7487 21.4962 0.4752 -9026.2232 1112.9165 0.0000 0.0000 0.0000 -7420.1320 0.0000 -7420.1320 -7420.1320 0.0000 -3771.0933 -3678.8018 25920.0000 -3771.0933 -3678.8018
ENERGY: 1000 279.6914 197.1494 21.1468 0.3569 -9125.4712 1127.5200 0.0000 0.0000 0.0000 -7499.6067 0.0000 -7499.6067 -7499.6067 0.0000 -3831.3280 -3721.8372 25920.0000 -3831.3280 -3721.8372
TCL: Running for 9000 steps
ETITLE: TS BOND ANGLE DIHED IMPRP ELECT VDW BOUNDARY MISC KINETIC TOTAL TEMP POTENTIAL TOTAL3 TEMPAVG PRESSURE GPRESSURE VOLUME PRESSAVG GPRESSAVG
ENERGY: 1000 5.0579 20.9620 21.1484 0.3571 -8217.7064 1108.1835 0.0000 0.0000 0.0000 -7061.9975 0.0000 -7061.9975 -7062.1057 0.0000 -1464.0607 -1429.4174 25920.0000 -1464.0607 -1429.4174
ENERGY: 3000 15.8310 43.1036 26.2491 2.6269 -7331.4877 686.9301 0.0000 0.0000 997.0467 -5559.7003 246.6143 -6556.7470 -5558.9241 224.9370 -183.8554 -136.8026 19532.4272 -17.7541 -17.9260
ENERGY: 5000 18.9143 60.1393 28.3575 6.0074 -6979.4490 628.7511 0.0000 0.0000 1155.1742 -5082.1052 285.7263 -6237.2794 -5079.4425 277.9721 -1594.2813 -1548.9367 19824.4580 11.1498 10.6849
ENERGY: 6000 23.4340 61.2972 31.0669 2.7919 -6885.9595 587.6989 0.0000 0.0000 1134.8997 -5044.7709 280.7115 -6179.6706 -5042.5088 288.3169 -1168.9031 -1111.1874 19671.1692 -12.1123 -11.8617
ENERGY: 8000 15.9359 50.8708 27.9736 3.2337 -6868.8171 639.1386 0.0000 0.0000 1208.6470 -4923.0175 298.9525 -6131.6645 -4918.5377 294.7049 348.3751 407.4118 19901.2967 -18.8778 -19.0015
ENERGY: 10000 21.1236 49.7102 28.0332 3.3485 -6754.6404 587.3729 0.0000 0.0000 1213.0070 -4852.0450 300.0309 -6065.0520 -4849.0930 304.1134 -999.7059 -972.4417 20153.3391 -13.3854 -13.1825
