Info: SIMULATION PARAMETERS:
Info: TIMESTEP               2
Info: NUMBER OF STEPS        0
Info: STEPS PER CYCLE        10
Info: FIRST LDB TIMESTEP     50
Info: LAST LDB TIMESTEP     -1
Info: HOM BACKGROUND SCALING 1
Info: MIN ATOMS PER PATCH    40
Info: INITIAL TEMPERATURE    300
Info: CENTER OF MASS MOVING INITIALLY? NO
Info: DIELECTRIC             1
Info: EXCLUDE                SCALED ONE-FOUR
Info: 1-4 ELECTROSTATICS SCALED BY 1
Info: MODIFIED 1-4 VDW PARAMETERS WILL BE USED
Info: DCD FILENAME           imineq.dcd
Info: DCD FREQUENCY          2000
Info: DCD FIRST STEP         2000
Info: XST FILENAME           imineq.xst
Info: XST FREQUENCY          2000
Info: NO VELOCITY DCD OUTPUT
Info: NO FORCE DCD OUTPUT
Info: OUTPUT FILENAME        imineq
Info: BINARY OUTPUT FILES WILL BE USED
Info: RESTART FILENAME       imineq.restart
Info: RESTART FREQUENCY      2000
Info: BINARY RESTART FILES WILL BE USED
Info: SWITCHING ACTIVE
Info: SWITCHING ON           16
Info: SWITCHING OFF          18
Info: PAIRLIST DISTANCE      20
Info: PAIRLIST SHRINK RATE   0.01
Info: PAIRLIST GROW RATE     0.01
Info: PAIRLIST TRIGGER       0.3
Info: PAIRLISTS PER CYCLE    2
Info: PAIRLISTS ENABLED
Info: MARGIN                 0
Info: HYDROGEN GROUP CUTOFF  2.5
Info: PATCH DIMENSION        22.5
Info: ENERGY OUTPUT STEPS    2000
Info: CROSSTERM ENERGY INCLUDED IN DIHEDRAL
Info: TIMING OUTPUT STEPS    20000
Info: PRESSURE OUTPUT STEPS  2000
Info: FIXED ATOMS ACTIVE
Info: GBIS GENERALIZED BORN IMPLICIT SOLVENT ACTIVE
Info: GBIS SOLVENT DIELECTRIC: 78.5
Info: GBIS PROTEIN DIELECTRIC: 1
Info: GBIS COULOMB RADIUS OFFSET: 0.09 Ang
Info: GBIS ION CONCENTRATION: 0.2 M
Info: GBIS DEBYE SCREENING LENGTH: 6.82308 Ang
Info: GBIS DELTA: 1
Info: GBIS BETA: 0.8
Info: GBIS GAMMA: 4.85
Info: GBIS BORN RADIUS CUTOFF: 15 Ang
Info: GBIS MAX BORN RADIUS: 30 Ang
Info: SASA SURFACE TENSION: 0.005 kcal/mol/Ang^2
Info: LANGEVIN DYNAMICS ACTIVE
Info: LANGEVIN TEMPERATURE   300
Info: LANGEVIN DAMPING COEFFICIENT IS 1 INVERSE PS
Info: LANGEVIN DYNAMICS NOT APPLIED TO HYDROGENS
Info: USING VERLET I (r-RESPA) MTS SCHEME.
Info: C1 SPLITTING OF LONG RANGE ELECTROSTATICS
Info: PLACING ATOMS IN PATCHES BY HYDROGEN GROUPS
Info: RIGID BONDS TO HYDROGEN : ALL
Info:         ERROR TOLERANCE : 1e-08
Info:          MAX ITERATIONS : 100
Info: RIGID WATER USING SETTLE ALGORITHM
Info: RANDOM NUMBER SEED     1361503401
Info: USE HYDROGEN BONDS?    NO
Info: COORDINATE PDB         smd_ini.pdb
Info: STRUCTURE FILE         da.psf
Info: PARAMETER file: CHARMM format!
Info: PARAMETERS             ../../reso/toppar/par_all27_prot_lipid.prm
Info: USING ARITHMETIC MEAN TO COMBINE L-J SIGMA PARAMETERS
Info: SUMMARY OF PARAMETERS:
Info: 180 BONDS
Info: 447 ANGLES
Info: 566 DIHEDRAL
Info: 46 IMPROPER
Info: 6 CROSSTERM
Info: 114 VDW
Info: 0 VDW_PAIRS
Info: 0 NBTHOLE_PAIRS
Info: STRUCTURE SUMMARY:
Info: 104 ATOMS
Info: 103 BONDS
Info: 183 ANGLES
Info: 251 DIHEDRALS
Info: 22 IMPROPERS
Info: 0 CROSSTERMS
Info: 0 EXCLUSIONS
Info: 4 FIXED ATOMS
Info: 53 RIGID BONDS
Info: 0 RIGID BONDS BETWEEN FIXED ATOMS
Info: 247 DEGREES OF FREEDOM
Info: 51 HYDROGEN GROUPS
Info: 4 ATOMS IN LARGEST HYDROGEN GROUP
Info: 51 MIGRATION GROUPS
Info: 4 ATOMS IN LARGEST MIGRATION GROUP
Info: 0 HYDROGEN GROUPS WITH ALL ATOMS FIXED
Info: TOTAL MASS = 727.821 amu
Info: TOTAL CHARGE = 6.70552e-08 e
Info: REMOVING COM VELOCITY -0.100736 0.0357254 0.777109
Info: NONBONDED TABLE R-SQUARED SPACING: 0.0625
Info: NONBONDED TABLE SIZE: 833 POINTS
TCL: Minimizing for 1000 steps
ETITLE: TS BOND ANGLE DIHED IMPRP ELECT VDW BOUNDARY MISC KINETIC TOTAL TEMP POTENTIAL TOTAL3 TEMPAVG
ENERGY: 0 38.4959 57.8064 25.4984 2.5015 27.5345 -14.7292 3.8970 0.0000 0.0000 141.0045 0.0000 141.0045 141.0045 0.0000
ENERGY: 200 38.2864 57.7254 25.4955 2.4964 27.5349 -14.7344 3.8970 0.0000 0.0000 140.7014 0.0000 140.7014 140.7014 0.0000
ENERGY: 400 38.2864 57.7254 25.4955 2.4964 27.5349 -14.7344 3.8970 0.0000 0.0000 140.7014 0.0000 140.7014 140.7014 0.0000
ENERGY: 600 38.2864 57.7254 25.4955 2.4964 27.5349 -14.7344 3.8970 0.0000 0.0000 140.7014 0.0000 140.7014 140.7014 0.0000
ENERGY: 800 38.2864 57.7254 25.4955 2.4964 27.5349 -14.7344 3.8970 0.0000 0.0000 140.7014 0.0000 140.7014 140.7014 0.0000
ENERGY: 1000 38.2864 57.7254 25.4955 2.4964 27.5349 -14.7344 3.8970 0.0000 0.0000 140.7014 0.0000 140.7014 140.7014 0.0000
TCL: Running for 499000 steps
ETITLE: TS BOND ANGLE DIHED IMPRP ELECT VDW BOUNDARY MISC KINETIC TOTAL TEMP POTENTIAL TOTAL3 TEMPAVG
ENERGY: 2000 19.7899 54.3274 26.4073 4.5650 22.8212 -17.7254 0.0000 0.0000 58.3164 168.5018 237.6205 110.1855 168.8843 189.0383
ENERGY: 102000 21.2984 59.2787 27.6289 2.5971 23.3848 -16.1220 0.0000 0.0000 83.6013 201.6672 340.6485 118.0659 202.8371 280.6141
ENERGY: 202000 17.6127 69.0547 28.5609 3.1721 21.1694 -10.8908 0.0000 0.0000 68.0949 196.7738 277.4649 128.6789 197.4895 297.2820
ENERGY: 300000 26.8460 66.1952 28.9771 3.3017 26.7602 -13.7145 0.0000 0.0000 70.7141 209.0798 288.1372 138.3657 209.7213 320.0078
ENERGY: 400000 25.4158 58.1150 29.3768 2.2943 26.1987 -12.2028 0.0000 0.0000 77.7224 206.9203 316.6938 129.1979 207.3193 319.7103
ENERGY: 500000 18.6265 55.1223 26.2700 3.7223 31.4413 -13.9439 0.0000 0.0000 86.2342 207.4728 351.3767 121.2386 209.0713 315.6377
