Info: SIMULATION PARAMETERS:
Info: TIMESTEP               2
Info: NUMBER OF STEPS        0
Info: STEPS PER CYCLE        10
Info: PERIODIC CELL BASIS 1  27 0 0
Info: PERIODIC CELL BASIS 2  0 24 0
Info: PERIODIC CELL BASIS 3  0 0 54
Info: PERIODIC CELL CENTER   2.28 -0.35 16.49
Info: WRAPPING WATERS AROUND PERIODIC BOUNDARIES ON OUTPUT.
Info: WRAPPING ALL CLUSTERS AROUND PERIODIC BOUNDARIES ON OUTPUT.
Info: FIRST LDB TIMESTEP     50
Info: LAST LDB TIMESTEP     -1
Info: HOM BACKGROUND SCALING 1
Info: PME BACKGROUND SCALING 1
Info: MIN ATOMS PER PATCH    40
Info: INITIAL TEMPERATURE    300
Info: CENTER OF MASS MOVING INITIALLY? NO
Info: DIELECTRIC             1
Info: EXCLUDE                SCALED ONE-FOUR
Info: 1-4 ELECTROSTATICS SCALED BY 1
Info: MODIFIED 1-4 VDW PARAMETERS WILL BE USED
Info: DCD FILENAME           emineq2.dcd
Info: DCD FREQUENCY          500
Info: DCD FIRST STEP         500
Info: DCD FILE WILL CONTAIN UNIT CELL DATA
Info: XST FILENAME           emineq2.xst
Info: XST FREQUENCY          1000
Info: NO VELOCITY DCD OUTPUT
Info: NO FORCE DCD OUTPUT
Info: OUTPUT FILENAME        emineq2
Info: RESTART FILENAME       emineq2.restart
Info: RESTART FREQUENCY      1000
Info: BINARY RESTART FILES WILL BE USED
Info: SWITCHING ACTIVE
Info: SWITCHING ON           10
Info: SWITCHING OFF          12
Info: PAIRLIST DISTANCE      13.5
Info: PAIRLIST SHRINK RATE   0.01
Info: PAIRLIST GROW RATE     0.01
Info: PAIRLIST TRIGGER       0.3
Info: PAIRLISTS PER CYCLE    2
Info: PAIRLISTS ENABLED
Info: MARGIN                 0.48
Info: HYDROGEN GROUP CUTOFF  2.5
Info: PATCH DIMENSION        16.48
Info: ENERGY OUTPUT STEPS    1000
Info: CROSSTERM ENERGY INCLUDED IN DIHEDRAL
Info: TIMING OUTPUT STEPS    10000
Info: PRESSURE OUTPUT STEPS  1000
Info: FIXED ATOMS ACTIVE
Info: LANGEVIN DYNAMICS ACTIVE
Info: LANGEVIN TEMPERATURE   300
Info: LANGEVIN DAMPING COEFFICIENT IS 1 INVERSE PS
Info: LANGEVIN DYNAMICS NOT APPLIED TO HYDROGENS
Info: LANGEVIN PISTON PRESSURE CONTROL ACTIVE
Info:        TARGET PRESSURE IS 1.01325 BAR
Info:     OSCILLATION PERIOD IS 100 FS
Info:             DECAY TIME IS 50 FS
Info:     PISTON TEMPERATURE IS 300 K
Info:       PRESSURE CONTROL IS GROUP-BASED
Info:    INITIAL STRAIN RATE IS 0 0 0
Info:       CELL FLUCTUATION IS ISOTROPIC
Info: PARTICLE MESH EWALD (PME) ACTIVE
Info: PME TOLERANCE               1e-06
Info: PME EWALD COEFFICIENT       0.257952
Info: PME INTERPOLATION ORDER     4
Info: PME GRID DIMENSIONS         27 24 54
Info: PME MAXIMUM GRID SPACING    1
Info: FULL ELECTROSTATIC EVALUATION FREQUENCY      2
Info: USING VERLET I (r-RESPA) MTS SCHEME.
Info: C1 SPLITTING OF LONG RANGE ELECTROSTATICS
Info: PLACING ATOMS IN PATCHES BY HYDROGEN GROUPS
Info: RIGID BONDS TO HYDROGEN : ALL
Info:         ERROR TOLERANCE : 1e-08
Info:          MAX ITERATIONS : 100
Info: RIGID WATER USING SETTLE ALGORITHM
Info: RANDOM NUMBER SEED     1361573713
Info: USE HYDROGEN BONDS?    NO
Info: COORDINATE PDB         emineq.coor
Info: STRUCTURE FILE         solvate.psf
Info: PARAMETER file: CHARMM format!
Info: PARAMETERS             ../../reso/toppar/par_all27_prot_lipid.prm
Info: USING ARITHMETIC MEAN TO COMBINE L-J SIGMA PARAMETERS
Info: SUMMARY OF PARAMETERS:
Info: 180 BONDS
Info: 447 ANGLES
Info: 566 DIHEDRAL
Info: 46 IMPROPER
Info: 6 CROSSTERM
Info: 114 VDW
Info: 0 VDW_PAIRS
Info: 0 NBTHOLE_PAIRS
Info: STRUCTURE SUMMARY:
Info: 2795 ATOMS
Info: 1897 BONDS
Info: 1080 ANGLES
Info: 251 DIHEDRALS
Info: 22 IMPROPERS
Info: 0 CROSSTERMS
Info: 0 EXCLUSIONS
Info: 2 FIXED ATOMS
Info: 2744 RIGID BONDS
Info: 0 RIGID BONDS BETWEEN FIXED ATOMS
Info: 5635 DEGREES OF FREEDOM
Info: 948 HYDROGEN GROUPS
Info: 4 ATOMS IN LARGEST HYDROGEN GROUP
Info: 948 MIGRATION GROUPS
Info: 4 ATOMS IN LARGEST MIGRATION GROUP
Info: 0 HYDROGEN GROUPS WITH ALL ATOMS FIXED
Info: TOTAL MASS = 16887.6 amu
Info: TOTAL CHARGE = 6.70552e-08 e
Info: MASS DENSITY = 0.801418 g/cm^3
Info: ATOM DENSITY = 0.0798754 atoms/A^3
Info: REMOVING COM VELOCITY 0.120295 0.101833 0.00431386
Info: NONBONDED TABLE R-SQUARED SPACING: 0.0625
Info: NONBONDED TABLE SIZE: 769 POINTS
TCL: Minimizing for 100 steps
ETITLE: TS BOND ANGLE DIHED IMPRP ELECT VDW BOUNDARY MISC KINETIC TOTAL TEMP POTENTIAL TOTAL3 TEMPAVG PRESSURE GPRESSURE VOLUME PRESSAVG GPRESSAVG
ENERGY: 0 17.8638 59.3810 34.0688 3.6892 -8341.4989 779.0336 0.0000 0.0000 0.0000 -7447.4625 0.0000 -7447.4625 -7447.4625 0.0000 13006.3370 -943.3964 34992.0000 13006.3370 -943.3964
ENERGY: 20 268.5992 116.7349 32.8379 1.6081 -9088.2402 733.8923 0.0000 0.0000 0.0000 -7934.5679 0.0000 -7934.5679 -7934.5679 0.0000 -4756.3429 -2962.8447 34992.0000 -4756.3429 -2962.8447
ENERGY: 40 516.8954 320.1256 30.8279 0.8659 -9731.9528 640.7981 0.0000 0.0000 0.0000 -8222.4401 0.0000 -8222.4401 -8222.4401 0.0000 -10172.4719 -5364.6268 34992.0000 -10172.4719 -5364.6268
ENERGY: 60 310.0467 230.5427 29.3726 0.8553 -9809.9904 625.6730 0.0000 0.0000 0.0000 -8613.5002 0.0000 -8613.5002 -8613.5002 0.0000 -5571.9544 -5730.9073 34992.0000 -5571.9544 -5730.9073
ENERGY: 80 333.4305 246.4113 27.1142 0.8097 -10244.5397 651.2975 0.0000 0.0000 0.0000 -8985.4765 0.0000 -8985.4765 -8985.4765 0.0000 -7940.2460 -6314.7562 34992.0000 -7940.2460 -6314.7562
ENERGY: 100 341.0882 245.8738 25.4492 0.7148 -10514.5280 690.7210 0.0000 0.0000 0.0000 -9210.6810 0.0000 -9210.6810 -9210.6810 0.0000 -8974.5000 -6738.4100 34992.0000 -8974.5000 -6738.4100
TCL: Running for 99900 steps
ETITLE: TS BOND ANGLE DIHED IMPRP ELECT VDW BOUNDARY MISC KINETIC TOTAL TEMP POTENTIAL TOTAL3 TEMPAVG PRESSURE GPRESSURE VOLUME PRESSAVG GPRESSAVG
ENERGY: 1000 17.6516 45.4297 28.7334 4.7638 -10577.2106 1108.9023 0.0000 0.0000 1248.0919 -8123.6380 222.9169 -9371.7299 -8120.1322 194.0570 184.1524 222.1442 26717.5290 3.1595 2.8469
ENERGY: 21000 19.3262 56.7757 30.2320 6.1484 -9710.5026 849.4409 0.0000 0.0000 1723.9659 -7024.6135 307.9109 -8748.5794 -7019.2507 296.3734 -577.8509 -548.7078 27539.1029 8.0831 7.7241
ENERGY: 41000 14.6340 56.4517 27.7460 5.5091 -9724.3121 922.0424 0.0000 0.0000 1712.2318 -6985.6971 305.8152 -8697.9289 -6981.6683 300.1633 -36.1758 -9.3794 27795.6641 16.1789 16.2270
ENERGY: 60000 18.3082 62.3445 31.1750 3.2856 -9663.7203 841.9953 0.0000 0.0000 1624.3571 -7082.2547 290.1202 -8706.6118 -7078.5856 297.1868 -621.2508 -582.6738 27319.6292 6.6629 6.2527
ENERGY: 80000 22.5301 55.6194 29.3578 2.9123 -9588.6626 843.4046 0.0000 0.0000 1673.4603 -6961.3783 298.8903 -8634.8385 -6957.3057 304.6086 -1012.3676 -960.4002 27761.1187 3.2392 3.0666
ENERGY: 100000 18.0285 71.8584 28.3642 3.2051 -9685.6717 887.2848 0.0000 0.0000 1698.3633 -6978.5673 303.3382 -8676.9306 -6975.3285 298.0372 -21.5612 38.7120 27766.5835 11.3839 11.5264
