Info: SIMULATION PARAMETERS:
Info: TIMESTEP               2
Info: NUMBER OF STEPS        0
Info: STEPS PER CYCLE        10
Info: FIRST LDB TIMESTEP     50
Info: LAST LDB TIMESTEP     -1
Info: HOM BACKGROUND SCALING 1
Info: MIN ATOMS PER PATCH    40
Info: INITIAL TEMPERATURE    300
Info: CENTER OF MASS MOVING INITIALLY? NO
Info: DIELECTRIC             1
Info: EXCLUDE                SCALED ONE-FOUR
Info: 1-4 ELECTROSTATICS SCALED BY 1
Info: MODIFIED 1-4 VDW PARAMETERS WILL BE USED
Info: DCD FILENAME           eevac100ps.dcd
Info: DCD FREQUENCY          2000
Info: DCD FIRST STEP         2000
Info: XST FILENAME           eevac100ps.xst
Info: XST FREQUENCY          2000
Info: NO VELOCITY DCD OUTPUT
Info: NO FORCE DCD OUTPUT
Info: OUTPUT FILENAME        eevac100ps
Info: BINARY OUTPUT FILES WILL BE USED
Info: RESTART FILENAME       eevac100ps.restart
Info: RESTART FREQUENCY      1000
Info: BINARY RESTART FILES WILL BE USED
Info: SWITCHING ACTIVE
Info: SWITCHING ON           10
Info: SWITCHING OFF          12
Info: PAIRLIST DISTANCE      13.5
Info: PAIRLIST SHRINK RATE   0.01
Info: PAIRLIST GROW RATE     0.01
Info: PAIRLIST TRIGGER       0.3
Info: PAIRLISTS PER CYCLE    2
Info: PAIRLISTS ENABLED
Info: MARGIN                 0
Info: HYDROGEN GROUP CUTOFF  2.5
Info: PATCH DIMENSION        16
Info: ENERGY OUTPUT STEPS    1000
Info: CROSSTERM ENERGY INCLUDED IN DIHEDRAL
Info: TIMING OUTPUT STEPS    10000
Info: LANGEVIN DYNAMICS ACTIVE
Info: LANGEVIN TEMPERATURE   300
Info: LANGEVIN DAMPING COEFFICIENT IS 1 INVERSE PS
Info: LANGEVIN DYNAMICS NOT APPLIED TO HYDROGENS
Info: USING VERLET I (r-RESPA) MTS SCHEME.
Info: C1 SPLITTING OF LONG RANGE ELECTROSTATICS
Info: PLACING ATOMS IN PATCHES BY HYDROGEN GROUPS
Info: RIGID BONDS TO HYDROGEN : ALL
Info:         ERROR TOLERANCE : 1e-08
Info:          MAX ITERATIONS : 100
Info: RIGID WATER USING SETTLE ALGORITHM
Info: RANDOM NUMBER SEED     1345690150
Info: USE HYDROGEN BONDS?    NO
Info: COORDINATE PDB         nm.pdb
Info: STRUCTURE FILE         nm.psf
Info: PARAMETER file: CHARMM format!
Info: PARAMETERS             ../../reso/toppar/par_all27_prot_lipid.prm
Info: USING ARITHMETIC MEAN TO COMBINE L-J SIGMA PARAMETERS
Info: SUMMARY OF PARAMETERS:
Info: 180 BONDS
Info: 447 ANGLES
Info: 566 DIHEDRAL
Info: 46 IMPROPER
Info: 6 CROSSTERM
Info: 114 VDW
Info: 0 VDW_PAIRS
Info: 0 NBTHOLE_PAIRS
Info: STRUCTURE SUMMARY:
Info: 224 ATOMS
Info: 231 BONDS
Info: 408 ANGLES
Info: 609 DIHEDRALS
Info: 33 IMPROPERS
Info: 10 CROSSTERMS
Info: 0 EXCLUSIONS
Info: 105 RIGID BONDS
Info: 567 DEGREES OF FREEDOM
Info: 119 HYDROGEN GROUPS
Info: 4 ATOMS IN LARGEST HYDROGEN GROUP
Info: 119 MIGRATION GROUPS
Info: 4 ATOMS IN LARGEST MIGRATION GROUP
Info: TOTAL MASS = 1650.84 amu
Info: TOTAL CHARGE = 1 e
Info: REMOVING COM VELOCITY -0.412091 0.878784 0.380548
Info: NONBONDED TABLE R-SQUARED SPACING: 0.0625
Info: NONBONDED TABLE SIZE: 769 POINTS
TCL: Minimizing for 1000 steps
ETITLE: TS BOND ANGLE DIHED IMPRP ELECT VDW BOUNDARY MISC KINETIC TOTAL TEMP POTENTIAL TOTAL3 TEMPAVG
ENERGY: 0 227.4562 111.0014 52.6417 0.7424 -140.8506 896.3892 0.0000 0.0000 0.0000 1147.3803 0.0000 1147.3803 1147.3803 0.0000
ENERGY: 200 14.5806 33.0592 49.6111 1.9955 -203.7059 -24.8297 0.0000 0.0000 0.0000 -129.2892 0.0000 -129.2892 -129.2892 0.0000
ENERGY: 400 12.7478 29.3592 45.0780 1.9235 -223.2457 -20.2610 0.0000 0.0000 0.0000 -154.3982 0.0000 -154.3982 -154.3982 0.0000
ENERGY: 600 12.5273 27.7190 45.0451 1.5535 -230.6213 -20.0490 0.0000 0.0000 0.0000 -163.8254 0.0000 -163.8254 -163.8254 0.0000
ENERGY: 800 12.4275 27.1975 44.8371 1.5724 -234.9998 -19.1008 0.0000 0.0000 0.0000 -168.0662 0.0000 -168.0662 -168.0662 0.0000
ENERGY: 1000 12.6923 28.0508 46.0705 1.5792 -243.1106 -17.4047 0.0000 0.0000 0.0000 -172.1225 0.0000 -172.1225 -172.1225 0.0000
TCL: Running for 49000 steps
ETITLE: TS BOND ANGLE DIHED IMPRP ELECT VDW BOUNDARY MISC KINETIC TOTAL TEMP POTENTIAL TOTAL3 TEMPAVG
ENERGY: 1000 11.2552 28.0440 46.0701 1.5783 -240.1207 -17.4439 0.0000 0.0000 0.0000 -170.6171 0.0000 -170.6171 -170.6239 0.0000
ENERGY: 11000 51.9184 104.6101 60.7583 6.2856 -254.0661 0.5976 0.0000 0.0000 161.9923 132.0961 287.5422 -29.8962 134.1173 291.5845
ENERGY: 21000 45.8427 115.0752 73.9621 6.9096 -260.6496 -3.9715 0.0000 0.0000 162.3567 139.5252 288.1891 -22.8315 141.2907 288.6099
ENERGY: 30000 47.3256 121.4752 66.3100 7.0996 -268.5158 -3.0473 0.0000 0.0000 176.8677 147.5151 313.9467 -29.3526 150.1534 307.5709
ENERGY: 40000 39.9207 118.0315 77.6470 8.0957 -275.0498 -5.7059 0.0000 0.0000 155.4891 118.4283 275.9989 -37.0608 120.0143 287.8378
ENERGY: 50000 37.7666 114.4249 75.4058 5.2912 -267.4638 -5.1619 0.0000 0.0000 181.4590 141.7217 322.0964 -39.7373 144.2970 300.5722
