Info: SIMULATION PARAMETERS:
Info: TIMESTEP               0.5
Info: NUMBER OF STEPS        0
Info: STEPS PER CYCLE        10
Info: PERIODIC CELL BASIS 1  24 0 0
Info: PERIODIC CELL BASIS 2  0 24 0
Info: PERIODIC CELL BASIS 3  0 0 60
Info: PERIODIC CELL CENTER   4.49 -3.55 22.58
Info: WRAPPING WATERS AROUND PERIODIC BOUNDARIES ON OUTPUT.
Info: WRAPPING ALL CLUSTERS AROUND PERIODIC BOUNDARIES ON OUTPUT.
Info: FIRST LDB TIMESTEP     50
Info: LAST LDB TIMESTEP     -1
Info: HOM BACKGROUND SCALING 1
Info: PME BACKGROUND SCALING 1
Info: MIN ATOMS PER PATCH    40
Info: INITIAL TEMPERATURE    300
Info: CENTER OF MASS MOVING INITIALLY? NO
Info: DIELECTRIC             1
Info: EXCLUDE                SCALED ONE-FOUR
Info: 1-4 ELECTROSTATICS SCALED BY 1
Info: MODIFIED 1-4 VDW PARAMETERS WILL BE USED
Info: DCD FILENAME           emineq.dcd
Info: DCD FREQUENCY          100
Info: DCD FIRST STEP         100
Info: DCD FILE WILL CONTAIN UNIT CELL DATA
Info: XST FILENAME           emineq.xst
Info: XST FREQUENCY          1000
Info: NO VELOCITY DCD OUTPUT
Info: NO FORCE DCD OUTPUT
Info: OUTPUT FILENAME        emineq
Info: BINARY OUTPUT FILES WILL BE USED
Info: RESTART FILENAME       emineq.restart
Info: RESTART FREQUENCY      1000
Info: BINARY RESTART FILES WILL BE USED
Info: SWITCHING ACTIVE
Info: SWITCHING ON           12
Info: SWITCHING OFF          14
Info: PAIRLIST DISTANCE      16
Info: PAIRLIST SHRINK RATE   0.01
Info: PAIRLIST GROW RATE     0.01
Info: PAIRLIST TRIGGER       0.3
Info: PAIRLISTS PER CYCLE    2
Info: PAIRLISTS ENABLED
Info: MARGIN                 2
Info: HYDROGEN GROUP CUTOFF  2.5
Info: PATCH DIMENSION        20.5
Info: ENERGY OUTPUT STEPS    1000
Info: CROSSTERM ENERGY INCLUDED IN DIHEDRAL
Info: TIMING OUTPUT STEPS    10000
Info: PRESSURE OUTPUT STEPS  1000
Info: FIXED ATOMS ACTIVE
Info: LANGEVIN PISTON PRESSURE CONTROL ACTIVE
Info:        TARGET PRESSURE IS 1.01325 BAR
Info:     OSCILLATION PERIOD IS 100 FS
Info:             DECAY TIME IS 50 FS
Info:     PISTON TEMPERATURE IS 300 K
Info:       PRESSURE CONTROL IS GROUP-BASED
Info:    INITIAL STRAIN RATE IS 0 0 0
Info:       CELL FLUCTUATION IS ISOTROPIC
Info: PARTICLE MESH EWALD (PME) ACTIVE
Info: PME TOLERANCE               1e-06
Info: PME EWALD COEFFICIENT       0.219398
Info: PME INTERPOLATION ORDER     4
Info: PME GRID DIMENSIONS         24 24 60
Info: PME MAXIMUM GRID SPACING    1
Info: FULL ELECTROSTATIC EVALUATION FREQUENCY      2
Info: USING VERLET I (r-RESPA) MTS SCHEME.
Info: C1 SPLITTING OF LONG RANGE ELECTROSTATICS
Info: PLACING ATOMS IN PATCHES BY HYDROGEN GROUPS
Info: RIGID BONDS TO HYDROGEN : ALL
Info:         ERROR TOLERANCE : 1e-08
Info:          MAX ITERATIONS : 100
Info: RIGID WATER USING SETTLE ALGORITHM
Info: RANDOM NUMBER SEED     1363803698
Info: USE HYDROGEN BONDS?    NO
Info: COORDINATE PDB         nm.pdb
Info: STRUCTURE FILE         nm.psf
Info: PARAMETER file: CHARMM format!
Info: PARAMETERS             ../toppar/par_all27_prot_lipid.prm
Info: USING ARITHMETIC MEAN TO COMBINE L-J SIGMA PARAMETERS
Info: SUMMARY OF PARAMETERS:
Info: 180 BONDS
Info: 447 ANGLES
Info: 566 DIHEDRAL
Info: 46 IMPROPER
Info: 6 CROSSTERM
Info: 114 VDW
Info: 0 VDW_PAIRS
Info: 0 NBTHOLE_PAIRS
Info: STRUCTURE SUMMARY:
Info: 2562 ATOMS
Info: 1753 BONDS
Info: 1042 ANGLES
Info: 338 DIHEDRALS
Info: 20 IMPROPERS
Info: 8 CROSSTERMS
Info: 0 EXCLUSIONS
Info: 2 FIXED ATOMS
Info: 2492 RIGID BONDS
Info: 0 RIGID BONDS BETWEEN FIXED ATOMS
Info: 5188 DEGREES OF FREEDOM
Info: 881 HYDROGEN GROUPS
Info: 4 ATOMS IN LARGEST HYDROGEN GROUP
Info: 881 MIGRATION GROUPS
Info: 4 ATOMS IN LARGEST MIGRATION GROUP
Info: 0 HYDROGEN GROUPS WITH ALL ATOMS FIXED
Info: TOTAL MASS = 15594.5 amu
Info: TOTAL CHARGE = -1 e
Info: MASS DENSITY = 0.749302 g/cm^3
Info: ATOM DENSITY = 0.0741319 atoms/A^3
Info: REMOVING COM VELOCITY 0.145643 -0.00658645 0.0725549
Info: NONBONDED TABLE R-SQUARED SPACING: 0.0625
Info: NONBONDED TABLE SIZE: 769 POINTS
TCL: Minimizing for 2000 steps
ETITLE: TS BOND ANGLE DIHED IMPRP ELECT VDW BOUNDARY MISC KINETIC TOTAL TEMP POTENTIAL TOTAL3 TEMPAVG PRESSURE GPRESSURE VOLUME PRESSAVG GPRESSAVG
ENERGY: 0 841.3022 389.3572 36.3467 0.0354 -7200.5345 1034.9354 0.0000 0.0000 0.0000 -4898.5576 0.0000 -4898.5576 -4898.5576 0.0000 -1410.9965 2751.3035 34560.0000 -1410.9965 2751.3035
ENERGY: 400 308.6507 238.3252 35.4194 0.4793 -10904.4364 1225.1292 0.0000 0.0000 0.0000 -9096.4326 0.0000 -9096.4326 -9096.4326 0.0000 -3664.0575 -3894.0366 34560.0000 -3664.0575 -3894.0366
ENERGY: 800 349.8337 246.8828 32.5294 0.3159 -11768.9895 1436.9134 0.0000 0.0000 0.0000 -9702.5143 0.0000 -9702.5143 -9702.5143 0.0000 -3174.2885 -3329.5860 34560.0000 -3174.2885 -3329.5860
ENERGY: 1200 366.8290 255.3328 31.8583 0.6705 -12106.3825 1533.6177 0.0000 0.0000 0.0000 -9918.0743 0.0000 -9918.0743 -9918.0743 0.0000 -3002.8442 -2946.5587 34560.0000 -3002.8442 -2946.5587
ENERGY: 1600 374.1052 257.2507 30.9410 0.6154 -12297.0206 1609.7795 0.0000 0.0000 0.0000 -10024.3289 0.0000 -10024.3289 -10024.3289 0.0000 -2267.1245 -2272.2057 34560.0000 -2267.1245 -2272.2057
ENERGY: 2000 377.0308 260.7292 32.1600 0.6248 -12375.4334 1618.6285 0.0000 0.0000 0.0000 -10086.2601 0.0000 -10086.2601 -10086.2601 0.0000 -2401.9108 -2376.7740 34560.0000 -2401.9108 -2376.7740
TCL: Running for 10000 steps
ETITLE: TS BOND ANGLE DIHED IMPRP ELECT VDW BOUNDARY MISC KINETIC TOTAL TEMP POTENTIAL TOTAL3 TEMPAVG PRESSURE GPRESSURE VOLUME PRESSAVG GPRESSAVG
ENERGY: 2000 7.7562 21.4281 32.1519 0.6244 -11144.3328 1590.2036 0.0000 0.0000 0.0000 -9492.1687 0.0000 -9492.1687 -9492.1781 0.0000 -141.7385 -118.7603 34560.0000 -141.7385 -118.7603
ENERGY: 4000 8.7152 25.4869 33.7321 0.5192 -11208.0682 1413.9253 0.0000 0.0000 237.6227 -9488.0669 46.0976 -9725.6896 -9488.0847 38.7188 1175.7359 1111.0570 26109.6563 -23.2070 -23.3332
ENERGY: 6000 7.5639 24.2699 34.0229 0.4640 -11326.0636 1426.6674 0.0000 0.0000 348.1725 -9484.9031 67.5437 -9833.0756 -9484.8758 64.5695 624.4868 633.2741 24606.3494 -62.3817 -62.3501
ENERGY: 8000 9.5549 29.2933 34.0429 0.9464 -11388.0433 1441.3959 0.0000 0.0000 390.3580 -9482.4520 75.7275 -9872.8100 -9482.4011 75.0119 702.6623 703.8869 24405.6466 -13.1714 -13.1521
ENERGY: 10000 10.4780 32.4534 31.2194 1.2488 -11396.3201 1435.2347 0.0000 0.0000 406.3830 -9479.3029 78.8363 -9885.6859 -9479.2540 79.3735 -662.6135 -591.1448 24208.2058 -0.1676 -0.0748
ENERGY: 12000 12.8452 30.5817 34.4347 1.0788 -11444.3627 1439.2361 0.0000 0.0000 450.0134 -9476.1728 87.3003 -9926.1862 -9476.1001 83.8722 -127.0817 -88.3516 24136.9253 6.9472 6.9425
