Info: SIMULATION PARAMETERS:
Info: TIMESTEP               0.5
Info: NUMBER OF STEPS        0
Info: STEPS PER CYCLE        10
Info: FIRST LDB TIMESTEP     50
Info: LAST LDB TIMESTEP     -1
Info: HOM BACKGROUND SCALING 1
Info: MIN ATOMS PER PATCH    40
Info: INITIAL TEMPERATURE    300
Info: CENTER OF MASS MOVING INITIALLY? NO
Info: DIELECTRIC             1
Info: EXCLUDE                SCALED ONE-FOUR
Info: 1-4 ELECTROSTATICS SCALED BY 1
Info: MODIFIED 1-4 VDW PARAMETERS WILL BE USED
Info: DCD FILENAME           imineq.dcd
Info: DCD FREQUENCY          100
Info: DCD FIRST STEP         100
Info: XST FILENAME           imineq.xst
Info: XST FREQUENCY          2000
Info: NO VELOCITY DCD OUTPUT
Info: NO FORCE DCD OUTPUT
Info: OUTPUT FILENAME        imineq
Info: BINARY OUTPUT FILES WILL BE USED
Info: RESTART FILENAME       imineq.restart
Info: RESTART FREQUENCY      2000
Info: BINARY RESTART FILES WILL BE USED
Info: SWITCHING ACTIVE
Info: SWITCHING ON           16
Info: SWITCHING OFF          18
Info: PAIRLIST DISTANCE      20
Info: PAIRLIST SHRINK RATE   0.01
Info: PAIRLIST GROW RATE     0.01
Info: PAIRLIST TRIGGER       0.3
Info: PAIRLISTS PER CYCLE    2
Info: PAIRLISTS ENABLED
Info: MARGIN                 0
Info: HYDROGEN GROUP CUTOFF  2.5
Info: PATCH DIMENSION        22.5
Info: ENERGY OUTPUT STEPS    2000
Info: CROSSTERM ENERGY INCLUDED IN DIHEDRAL
Info: TIMING OUTPUT STEPS    20000
Info: PRESSURE OUTPUT STEPS  2000
Info: FIXED ATOMS ACTIVE
Info: GBIS GENERALIZED BORN IMPLICIT SOLVENT ACTIVE
Info: GBIS SOLVENT DIELECTRIC: 78.5
Info: GBIS PROTEIN DIELECTRIC: 1
Info: GBIS COULOMB RADIUS OFFSET: 0.09 Ang
Info: GBIS ION CONCENTRATION: 0.2 M
Info: GBIS DEBYE SCREENING LENGTH: 6.82308 Ang
Info: GBIS DELTA: 1
Info: GBIS BETA: 0.8
Info: GBIS GAMMA: 4.85
Info: GBIS BORN RADIUS CUTOFF: 15 Ang
Info: GBIS MAX BORN RADIUS: 30 Ang
Info: SASA SURFACE TENSION: 0.005 kcal/mol/Ang^2
Info: LANGEVIN DYNAMICS ACTIVE
Info: LANGEVIN TEMPERATURE   300
Info: LANGEVIN DAMPING COEFFICIENT IS 1 INVERSE PS
Info: LANGEVIN DYNAMICS NOT APPLIED TO HYDROGENS
Info: USING VERLET I (r-RESPA) MTS SCHEME.
Info: C1 SPLITTING OF LONG RANGE ELECTROSTATICS
Info: PLACING ATOMS IN PATCHES BY HYDROGEN GROUPS
Info: RIGID BONDS TO HYDROGEN : ALL
Info:         ERROR TOLERANCE : 1e-08
Info:          MAX ITERATIONS : 100
Info: RIGID WATER USING SETTLE ALGORITHM
Info: RANDOM NUMBER SEED     1363803708
Info: USE HYDROGEN BONDS?    NO
Info: COORDINATE PDB         nm.pdb
Info: STRUCTURE FILE         nm.psf
Info: PARAMETER file: CHARMM format!
Info: PARAMETERS             ../toppar/par_all27_prot_lipid.prm
Info: USING ARITHMETIC MEAN TO COMBINE L-J SIGMA PARAMETERS
Info: SUMMARY OF PARAMETERS:
Info: 180 BONDS
Info: 447 ANGLES
Info: 566 DIHEDRAL
Info: 46 IMPROPER
Info: 6 CROSSTERM
Info: 114 VDW
Info: 0 VDW_PAIRS
Info: 0 NBTHOLE_PAIRS
Info: STRUCTURE SUMMARY:
Info: 129 ATOMS
Info: 131 BONDS
Info: 231 ANGLES
Info: 338 DIHEDRALS
Info: 20 IMPROPERS
Info: 8 CROSSTERMS
Info: 0 EXCLUSIONS
Info: 2 FIXED ATOMS
Info: 59 RIGID BONDS
Info: 0 RIGID BONDS BETWEEN FIXED ATOMS
Info: 322 DEGREES OF FREEDOM
Info: 70 HYDROGEN GROUPS
Info: 4 ATOMS IN LARGEST HYDROGEN GROUP
Info: 70 MIGRATION GROUPS
Info: 4 ATOMS IN LARGEST MIGRATION GROUP
Info: 0 HYDROGEN GROUPS WITH ALL ATOMS FIXED
Info: TOTAL MASS = 984.01 amu
Info: TOTAL CHARGE = -1 e
Info: REMOVING COM VELOCITY -0.0466962 0.453933 -0.715988
Info: NONBONDED TABLE R-SQUARED SPACING: 0.0625
Info: NONBONDED TABLE SIZE: 833 POINTS
TCL: Minimizing for 2000 steps
ETITLE: TS BOND ANGLE DIHED IMPRP ELECT VDW BOUNDARY MISC KINETIC TOTAL TEMP POTENTIAL TOTAL3 TEMPAVG
ENERGY: 0 82.1822 219.1232 36.3467 0.0354 -237.4796 236.4632 4.2811 0.0000 0.0000 340.9522 0.0000 340.9522 340.9522 0.0000
ENERGY: 400 81.5943 218.3934 36.3432 0.0379 -237.4882 231.0546 4.2812 0.0000 0.0000 334.2164 0.0000 334.2164 334.2164 0.0000
ENERGY: 800 81.5943 218.3934 36.3432 0.0379 -237.4882 231.0546 4.2812 0.0000 0.0000 334.2164 0.0000 334.2164 334.2164 0.0000
ENERGY: 1200 81.5943 218.3934 36.3432 0.0379 -237.4882 231.0546 4.2812 0.0000 0.0000 334.2164 0.0000 334.2164 334.2164 0.0000
ENERGY: 1600 81.5943 218.3934 36.3432 0.0379 -237.4882 231.0546 4.2812 0.0000 0.0000 334.2164 0.0000 334.2164 334.2164 0.0000
ENERGY: 2000 81.5943 218.3934 36.3432 0.0379 -237.4882 231.0546 4.2812 0.0000 0.0000 334.2164 0.0000 334.2164 334.2164 0.0000
TCL: Running for 10000 steps
ETITLE: TS BOND ANGLE DIHED IMPRP ELECT VDW BOUNDARY MISC KINETIC TOTAL TEMP POTENTIAL TOTAL3 TEMPAVG
ENERGY: 2000 79.6221 218.3237 36.3358 0.0378 -237.7688 231.4160 0.0000 0.0000 0.0000 327.9666 0.0000 327.9666 309.2841 0.0000
ENERGY: 4000 57.9725 127.3153 44.1146 10.4517 -263.1565 -0.3042 0.0000 0.0000 214.6930 191.0864 671.0462 -23.6066 191.1147 725.5303
ENERGY: 6000 43.0540 90.1859 37.1740 5.4788 -263.6531 2.1217 0.0000 0.0000 165.6457 80.0070 517.7435 -85.6387 80.3680 547.9466
ENERGY: 8000 37.9966 79.5042 46.6967 10.1308 -262.5353 -1.6796 0.0000 0.0000 128.9463 39.0596 403.0355 -89.8866 39.1256 445.3527
ENERGY: 10000 40.1699 74.3126 45.0505 3.3075 -261.2492 6.6277 0.0000 0.0000 117.9330 26.1519 368.6122 -91.7810 26.2314 389.3411
ENERGY: 12000 32.6707 81.3611 44.2382 2.7689 -271.7628 0.6168 0.0000 0.0000 115.1814 5.0743 360.0120 -110.1071 5.0375 390.6349
