Info: SIMULATION PARAMETERS:
Info: TIMESTEP               2
Info: NUMBER OF STEPS        0
Info: STEPS PER CYCLE        10
Info: FIRST LDB TIMESTEP     50
Info: LAST LDB TIMESTEP     -1
Info: HOM BACKGROUND SCALING 1
Info: MIN ATOMS PER PATCH    40
Info: INITIAL TEMPERATURE    300
Info: CENTER OF MASS MOVING INITIALLY? NO
Info: DIELECTRIC             1
Info: EXCLUDE                SCALED ONE-FOUR
Info: 1-4 ELECTROSTATICS SCALED BY 1
Info: MODIFIED 1-4 VDW PARAMETERS WILL BE USED
Info: DCD FILENAME           eegbis100ps.dcd
Info: DCD FREQUENCY          5000
Info: DCD FIRST STEP         5000
Info: XST FILENAME           eegbis100ps.xst
Info: XST FREQUENCY          5000
Info: NO VELOCITY DCD OUTPUT
Info: NO FORCE DCD OUTPUT
Info: OUTPUT FILENAME        eegbis100ps
Info: BINARY OUTPUT FILES WILL BE USED
Info: RESTART FILENAME       eegbis100ps.restart
Info: RESTART FREQUENCY      1000
Info: BINARY RESTART FILES WILL BE USED
Info: SWITCHING ACTIVE
Info: SWITCHING ON           13
Info: SWITCHING OFF          14
Info: PAIRLIST DISTANCE      16
Info: PAIRLIST SHRINK RATE   0.01
Info: PAIRLIST GROW RATE     0.01
Info: PAIRLIST TRIGGER       0.3
Info: PAIRLISTS PER CYCLE    2
Info: PAIRLISTS ENABLED
Info: MARGIN                 0
Info: HYDROGEN GROUP CUTOFF  2.5
Info: PATCH DIMENSION        18.5
Info: ENERGY OUTPUT STEPS    1000
Info: CROSSTERM ENERGY INCLUDED IN DIHEDRAL
Info: TIMING OUTPUT STEPS    10000
Info: PRESSURE OUTPUT STEPS  1000
Info: GBIS GENERALIZED BORN IMPLICIT SOLVENT ACTIVE
Info: GBIS SOLVENT DIELECTRIC: 78.5
Info: GBIS PROTEIN DIELECTRIC: 1
Info: GBIS COULOMB RADIUS OFFSET: 0.09 Ang
Info: GBIS ION CONCENTRATION: 0 M
Info: GBIS DEBYE SCREENING LENGTH: inf Ang
Info: GBIS DELTA: 1
Info: GBIS BETA: 0.8
Info: GBIS GAMMA: 4.85
Info: GBIS BORN RADIUS CUTOFF: 12 Ang
Info: GBIS MAX BORN RADIUS: 30 Ang
Info: LANGEVIN DYNAMICS ACTIVE
Info: LANGEVIN TEMPERATURE   300
Info: LANGEVIN DAMPING COEFFICIENT IS 1 INVERSE PS
Info: LANGEVIN DYNAMICS NOT APPLIED TO HYDROGENS
Info: USING VERLET I (r-RESPA) MTS SCHEME.
Info: C1 SPLITTING OF LONG RANGE ELECTROSTATICS
Info: PLACING ATOMS IN PATCHES BY HYDROGEN GROUPS
Info: RIGID BONDS TO HYDROGEN : ALL
Info:         ERROR TOLERANCE : 1e-08
Info:          MAX ITERATIONS : 100
Info: RIGID WATER USING SETTLE ALGORITHM
Info: RANDOM NUMBER SEED     1345690257
Info: USE HYDROGEN BONDS?    NO
Info: COORDINATE PDB         nm.pdb
Info: STRUCTURE FILE         nm.psf
Info: PARAMETER file: CHARMM format!
Info: PARAMETERS             ../../reso/toppar/par_all27_prot_lipid.prm
Info: USING ARITHMETIC MEAN TO COMBINE L-J SIGMA PARAMETERS
Info: SUMMARY OF PARAMETERS:
Info: 180 BONDS
Info: 447 ANGLES
Info: 566 DIHEDRAL
Info: 46 IMPROPER
Info: 6 CROSSTERM
Info: 114 VDW
Info: 0 VDW_PAIRS
Info: 0 NBTHOLE_PAIRS
Info: STRUCTURE SUMMARY:
Info: 224 ATOMS
Info: 231 BONDS
Info: 408 ANGLES
Info: 609 DIHEDRALS
Info: 33 IMPROPERS
Info: 10 CROSSTERMS
Info: 0 EXCLUSIONS
Info: 105 RIGID BONDS
Info: 567 DEGREES OF FREEDOM
Info: 119 HYDROGEN GROUPS
Info: 4 ATOMS IN LARGEST HYDROGEN GROUP
Info: 119 MIGRATION GROUPS
Info: 4 ATOMS IN LARGEST MIGRATION GROUP
Info: TOTAL MASS = 1650.84 amu
Info: TOTAL CHARGE = 1 e
Info: REMOVING COM VELOCITY -0.619268 -0.23448 -0.756119
Info: NONBONDED TABLE R-SQUARED SPACING: 0.0625
Info: NONBONDED TABLE SIZE: 769 POINTS
TCL: Minimizing for 1000 steps
ETITLE: TS BOND ANGLE DIHED IMPRP ELECT VDW BOUNDARY MISC KINETIC TOTAL TEMP POTENTIAL TOTAL3 TEMPAVG
ENERGY: 0 227.4562 111.0014 52.6417 0.7424 -343.4457 896.1203 0.0000 0.0000 0.0000 944.5162 0.0000 944.5162 944.5162 0.0000
ENERGY: 200 15.0536 30.1679 46.2089 1.0181 -353.4901 -33.8057 0.0000 0.0000 0.0000 -294.8473 0.0000 -294.8473 -294.8473 0.0000
ENERGY: 400 14.2445 27.5128 38.8960 0.7435 -353.3004 -37.1678 0.0000 0.0000 0.0000 -309.0715 0.0000 -309.0715 -309.0715 0.0000
ENERGY: 600 14.2226 26.5731 37.4309 0.6697 -357.7637 -36.3175 0.0000 0.0000 0.0000 -315.1850 0.0000 -315.1850 -315.1850 0.0000
ENERGY: 800 13.9188 25.7293 37.1812 0.5946 -361.2144 -34.9638 0.0000 0.0000 0.0000 -318.7544 0.0000 -318.7544 -318.7544 0.0000
ENERGY: 1000 14.1830 25.4362 36.6901 0.6581 -362.9041 -34.3041 0.0000 0.0000 0.0000 -320.2407 0.0000 -320.2407 -320.2407 0.0000
TCL: Running for 49000 steps
ETITLE: TS BOND ANGLE DIHED IMPRP ELECT VDW BOUNDARY MISC KINETIC TOTAL TEMP POTENTIAL TOTAL3 TEMPAVG
ENERGY: 1000 13.5876 25.4198 36.6820 0.6577 -361.6152 -34.2953 0.0000 0.0000 164.7212 -154.8422 292.3862 -319.5634 -154.9099 292.3862
ENERGY: 11000 49.5245 113.8424 55.9340 6.6848 -373.3650 -15.9032 0.0000 0.0000 169.2816 5.9992 300.4811 -163.2825 7.4651 293.2443
ENERGY: 21000 45.9458 109.8185 59.4792 6.2107 -362.9703 -24.3601 0.0000 0.0000 186.4452 20.5691 330.9471 -165.8761 23.6051 299.7235
ENERGY: 30000 50.3380 95.7611 61.4438 9.2993 -358.9777 -24.7148 0.0000 0.0000 168.8813 2.0310 299.7705 -166.8503 4.1984 286.3805
ENERGY: 40000 59.4849 109.8567 70.4101 4.8304 -357.9930 -19.0436 0.0000 0.0000 159.7467 27.2922 283.5562 -132.4544 28.6998 313.4387
ENERGY: 50000 51.7558 108.4953 68.8139 5.8908 -361.6730 -33.7156 0.0000 0.0000 176.2916 15.8589 312.9241 -160.4327 18.4975 301.8316
