Info: SIMULATION PARAMETERS:
Info: TIMESTEP               2
Info: NUMBER OF STEPS        0
Info: STEPS PER CYCLE        10
Info: PERIODIC CELL BASIS 1  27 0 0
Info: PERIODIC CELL BASIS 2  0 24 0
Info: PERIODIC CELL BASIS 3  0 0 54
Info: PERIODIC CELL CENTER   2.28 -0.35 16.49
Info: WRAPPING WATERS AROUND PERIODIC BOUNDARIES ON OUTPUT.
Info: WRAPPING ALL CLUSTERS AROUND PERIODIC BOUNDARIES ON OUTPUT.
Info: FIRST LDB TIMESTEP     50
Info: LAST LDB TIMESTEP     -1
Info: HOM BACKGROUND SCALING 1
Info: PME BACKGROUND SCALING 1
Info: MIN ATOMS PER PATCH    40
Info: INITIAL TEMPERATURE    300
Info: CENTER OF MASS MOVING INITIALLY? NO
Info: DIELECTRIC             1
Info: EXCLUDE                SCALED ONE-FOUR
Info: 1-4 ELECTROSTATICS SCALED BY 1
Info: MODIFIED 1-4 VDW PARAMETERS WILL BE USED
Info: DCD FILENAME           emineq.dcd
Info: DCD FREQUENCY          100
Info: DCD FIRST STEP         100
Info: DCD FILE WILL CONTAIN UNIT CELL DATA
Info: XST FILENAME           emineq.xst
Info: XST FREQUENCY          1000
Info: NO VELOCITY DCD OUTPUT
Info: NO FORCE DCD OUTPUT
Info: OUTPUT FILENAME        emineq
Info: RESTART FILENAME       emineq.restart
Info: RESTART FREQUENCY      1000
Info: BINARY RESTART FILES WILL BE USED
Info: SWITCHING ACTIVE
Info: SWITCHING ON           10
Info: SWITCHING OFF          12
Info: PAIRLIST DISTANCE      13.5
Info: PAIRLIST SHRINK RATE   0.01
Info: PAIRLIST GROW RATE     0.01
Info: PAIRLIST TRIGGER       0.3
Info: PAIRLISTS PER CYCLE    2
Info: PAIRLISTS ENABLED
Info: MARGIN                 0.48
Info: HYDROGEN GROUP CUTOFF  2.5
Info: PATCH DIMENSION        16.48
Info: ENERGY OUTPUT STEPS    1000
Info: CROSSTERM ENERGY INCLUDED IN DIHEDRAL
Info: TIMING OUTPUT STEPS    10000
Info: PRESSURE OUTPUT STEPS  1000
Info: FIXED ATOMS ACTIVE
Info: LANGEVIN DYNAMICS ACTIVE
Info: LANGEVIN TEMPERATURE   300
Info: LANGEVIN DAMPING COEFFICIENT IS 1 INVERSE PS
Info: LANGEVIN DYNAMICS NOT APPLIED TO HYDROGENS
Info: LANGEVIN PISTON PRESSURE CONTROL ACTIVE
Info:        TARGET PRESSURE IS 1.01325 BAR
Info:     OSCILLATION PERIOD IS 100 FS
Info:             DECAY TIME IS 50 FS
Info:     PISTON TEMPERATURE IS 300 K
Info:       PRESSURE CONTROL IS GROUP-BASED
Info:    INITIAL STRAIN RATE IS 0 0 0
Info:       CELL FLUCTUATION IS ISOTROPIC
Info: PARTICLE MESH EWALD (PME) ACTIVE
Info: PME TOLERANCE               1e-06
Info: PME EWALD COEFFICIENT       0.257952
Info: PME INTERPOLATION ORDER     4
Info: PME GRID DIMENSIONS         27 24 54
Info: PME MAXIMUM GRID SPACING    1
Info: FULL ELECTROSTATIC EVALUATION FREQUENCY      2
Info: USING VERLET I (r-RESPA) MTS SCHEME.
Info: C1 SPLITTING OF LONG RANGE ELECTROSTATICS
Info: PLACING ATOMS IN PATCHES BY HYDROGEN GROUPS
Info: RIGID BONDS TO HYDROGEN : ALL
Info:         ERROR TOLERANCE : 1e-08
Info:          MAX ITERATIONS : 100
Info: RIGID WATER USING SETTLE ALGORITHM
Info: RANDOM NUMBER SEED     1361572911
Info: USE HYDROGEN BONDS?    NO
Info: COORDINATE PDB         solvate.pdb
Info: STRUCTURE FILE         solvate.psf
Info: PARAMETER file: CHARMM format!
Info: PARAMETERS             ../../reso/toppar/par_all27_prot_lipid.prm
Info: USING ARITHMETIC MEAN TO COMBINE L-J SIGMA PARAMETERS
Info: SUMMARY OF PARAMETERS:
Info: 180 BONDS
Info: 447 ANGLES
Info: 566 DIHEDRAL
Info: 46 IMPROPER
Info: 6 CROSSTERM
Info: 114 VDW
Info: 0 VDW_PAIRS
Info: 0 NBTHOLE_PAIRS
Info: STRUCTURE SUMMARY:
Info: 2795 ATOMS
Info: 1897 BONDS
Info: 1080 ANGLES
Info: 251 DIHEDRALS
Info: 22 IMPROPERS
Info: 0 CROSSTERMS
Info: 0 EXCLUSIONS
Info: 2 FIXED ATOMS
Info: 2744 RIGID BONDS
Info: 0 RIGID BONDS BETWEEN FIXED ATOMS
Info: 5635 DEGREES OF FREEDOM
Info: 948 HYDROGEN GROUPS
Info: 4 ATOMS IN LARGEST HYDROGEN GROUP
Info: 948 MIGRATION GROUPS
Info: 4 ATOMS IN LARGEST MIGRATION GROUP
Info: 0 HYDROGEN GROUPS WITH ALL ATOMS FIXED
Info: TOTAL MASS = 16887.6 amu
Info: TOTAL CHARGE = 6.70552e-08 e
Info: MASS DENSITY = 0.801418 g/cm^3
Info: ATOM DENSITY = 0.0798754 atoms/A^3
Info: REMOVING COM VELOCITY -0.119658 0.173409 -0.0357562
Info: NONBONDED TABLE R-SQUARED SPACING: 0.0625
Info: NONBONDED TABLE SIZE: 769 POINTS
TCL: Minimizing for 1000 steps
ETITLE: TS BOND ANGLE DIHED IMPRP ELECT VDW BOUNDARY MISC KINETIC TOTAL TEMP POTENTIAL TOTAL3 TEMPAVG PRESSURE GPRESSURE VOLUME PRESSAVG GPRESSAVG
ENERGY: 0 889.6139 248.4284 25.4984 2.5015 -8255.2813 1753.0677 0.0000 0.0000 0.0000 -5336.1714 0.0000 -5336.1714 -5336.1714 0.0000 2472.2225 7877.8774 34992.0000 2472.2225 7877.8774
ENERGY: 200 292.6807 251.8948 22.8328 0.5504 -11170.4917 1039.0444 0.0000 0.0000 0.0000 -9563.4887 0.0000 -9563.4887 -9563.4887 0.0000 -4570.3158 -5331.7947 34992.0000 -4570.3158 -5331.7947
ENERGY: 400 357.0845 260.8902 21.8295 0.3856 -12098.4630 1291.3689 0.0000 0.0000 0.0000 -10166.9043 0.0000 -10166.9043 -10166.9043 0.0000 -4913.2711 -4814.8882 34992.0000 -4913.2711 -4814.8882
ENERGY: 600 380.8376 266.8440 22.7281 0.5283 -12558.1102 1448.0113 0.0000 0.0000 0.0000 -10439.1608 0.0000 -10439.1608 -10439.1608 0.0000 -4652.8512 -4410.7549 34992.0000 -4652.8512 -4410.7549
ENERGY: 800 385.4957 268.0598 21.7067 0.6122 -12784.5055 1502.9675 0.0000 0.0000 0.0000 -10605.6636 0.0000 -10605.6636 -10605.6636 0.0000 -4276.0657 -4286.7451 34992.0000 -4276.0657 -4286.7451
ENERGY: 1000 390.7087 269.9286 21.9480 0.7113 -12918.5978 1540.9886 0.0000 0.0000 0.0000 -10694.3126 0.0000 -10694.3126 -10694.3126 0.0000 -4211.0715 -4196.2315 34992.0000 -4211.0715 -4196.2315
TCL: Running for 19000 steps
ETITLE: TS BOND ANGLE DIHED IMPRP ELECT VDW BOUNDARY MISC KINETIC TOTAL TEMP POTENTIAL TOTAL3 TEMPAVG PRESSURE GPRESSURE VOLUME PRESSAVG GPRESSAVG
ENERGY: 1000 5.4284 20.6406 21.9461 0.7121 -11636.4151 1514.3452 0.0000 0.0000 0.0000 -10073.3427 0.0000 -10073.3427 -10073.4958 0.0000 -1826.8114 -1800.5248 34992.0000 -1826.8114 -1800.5248
ENERGY: 5000 17.2474 57.0934 25.0769 2.3890 -9933.9689 913.1759 0.0000 0.0000 1567.1283 -7351.8580 279.8988 -8918.9863 -7346.7747 272.1709 -199.7222 -165.0431 27298.3193 -25.6857 -25.6322
ENERGY: 9000 23.9406 72.7660 28.7925 5.3017 -9708.8264 907.2259 0.0000 0.0000 1597.5152 -7073.2845 285.3261 -8670.7997 -7068.1413 292.7746 -197.8556 -176.7271 27939.1325 -5.6421 -6.0103
ENERGY: 12000 25.6538 63.9569 29.1311 5.0586 -9788.7090 940.9256 0.0000 0.0000 1721.2356 -7002.7473 307.4233 -8723.9830 -6998.3879 297.1443 423.8910 455.7111 27649.3622 14.9752 14.9630
ENERGY: 16000 27.8139 59.9195 28.8758 6.3147 -9699.3618 903.0016 0.0000 0.0000 1744.8299 -6928.6065 311.6374 -8673.4364 -6924.0926 302.2521 675.7092 701.8268 27461.4913 -15.3907 -15.0621
ENERGY: 20000 17.7993 59.2940 34.0636 3.7177 -9693.1317 876.4474 0.0000 0.0000 1688.1161 -7013.6937 301.5080 -8701.8098 -7009.8489 295.5653 -22.3264 19.4717 27373.0029 3.4348 3.4558
