Info: SIMULATION PARAMETERS:
Info: TIMESTEP               2
Info: NUMBER OF STEPS        0
Info: STEPS PER CYCLE        10
Info: PERIODIC CELL BASIS 1  24 0 0
Info: PERIODIC CELL BASIS 2  0 20 0
Info: PERIODIC CELL BASIS 3  0 0 54
Info: PERIODIC CELL CENTER   2.4 -0.4 17
Info: WRAPPING WATERS AROUND PERIODIC BOUNDARIES ON OUTPUT.
Info: WRAPPING ALL CLUSTERS AROUND PERIODIC BOUNDARIES ON OUTPUT.
Info: FIRST LDB TIMESTEP     50
Info: LAST LDB TIMESTEP     -1
Info: HOM BACKGROUND SCALING 1
Info: PME BACKGROUND SCALING 1
Info: MIN ATOMS PER PATCH    40
Info: INITIAL TEMPERATURE    300
Info: CENTER OF MASS MOVING INITIALLY? NO
Info: DIELECTRIC             1
Info: EXCLUDE                SCALED ONE-FOUR
Info: 1-4 ELECTROSTATICS SCALED BY 1
Info: MODIFIED 1-4 VDW PARAMETERS WILL BE USED
Info: DCD FILENAME           emineq.dcd
Info: DCD FREQUENCY          100
Info: DCD FIRST STEP         100
Info: DCD FILE WILL CONTAIN UNIT CELL DATA
Info: XST FILENAME           emineq.xst
Info: XST FREQUENCY          1000
Info: NO VELOCITY DCD OUTPUT
Info: NO FORCE DCD OUTPUT
Info: OUTPUT FILENAME        emineq
Info: RESTART FILENAME       emineq.restart
Info: RESTART FREQUENCY      1000
Info: BINARY RESTART FILES WILL BE USED
Info: SWITCHING ACTIVE
Info: SWITCHING ON           9
Info: SWITCHING OFF          10
Info: PAIRLIST DISTANCE      12
Info: PAIRLIST SHRINK RATE   0.01
Info: PAIRLIST GROW RATE     0.01
Info: PAIRLIST TRIGGER       0.3
Info: PAIRLISTS PER CYCLE    2
Info: PAIRLISTS ENABLED
Info: MARGIN                 0.435
Info: HYDROGEN GROUP CUTOFF  2.5
Info: PATCH DIMENSION        14.935
Info: ENERGY OUTPUT STEPS    1000
Info: CROSSTERM ENERGY INCLUDED IN DIHEDRAL
Info: TIMING OUTPUT STEPS    10000
Info: PRESSURE OUTPUT STEPS  1000
Info: FIXED ATOMS ACTIVE
Info: LANGEVIN DYNAMICS ACTIVE
Info: LANGEVIN TEMPERATURE   300
Info: LANGEVIN DAMPING COEFFICIENT IS 1 INVERSE PS
Info: LANGEVIN DYNAMICS NOT APPLIED TO HYDROGENS
Info: LANGEVIN PISTON PRESSURE CONTROL ACTIVE
Info:        TARGET PRESSURE IS 1.01325 BAR
Info:     OSCILLATION PERIOD IS 100 FS
Info:             DECAY TIME IS 50 FS
Info:     PISTON TEMPERATURE IS 300 K
Info:       PRESSURE CONTROL IS GROUP-BASED
Info:    INITIAL STRAIN RATE IS 0 0 0
Info:       CELL FLUCTUATION IS ISOTROPIC
Info: PARTICLE MESH EWALD (PME) ACTIVE
Info: PME TOLERANCE               1e-06
Info: PME EWALD COEFFICIENT       0.312341
Info: PME INTERPOLATION ORDER     4
Info: PME GRID DIMENSIONS         24 20 54
Info: PME MAXIMUM GRID SPACING    1
Info: FULL ELECTROSTATIC EVALUATION FREQUENCY      2
Info: USING VERLET I (r-RESPA) MTS SCHEME.
Info: C1 SPLITTING OF LONG RANGE ELECTROSTATICS
Info: PLACING ATOMS IN PATCHES BY HYDROGEN GROUPS
Info: RIGID BONDS TO HYDROGEN : ALL
Info:         ERROR TOLERANCE : 1e-08
Info:          MAX ITERATIONS : 100
Info: RIGID WATER USING SETTLE ALGORITHM
Info: RANDOM NUMBER SEED     1361566652
Info: USE HYDROGEN BONDS?    NO
Info: COORDINATE PDB         coor.pdb
Info: STRUCTURE FILE         wb3.psf
Info: PARAMETER file: CHARMM format!
Info: PARAMETERS             ../../reso/toppar/par_all27_prot_lipid.prm
Info: USING ARITHMETIC MEAN TO COMBINE L-J SIGMA PARAMETERS
Info: SUMMARY OF PARAMETERS:
Info: 180 BONDS
Info: 447 ANGLES
Info: 566 DIHEDRAL
Info: 46 IMPROPER
Info: 6 CROSSTERM
Info: 114 VDW
Info: 0 VDW_PAIRS
Info: 0 NBTHOLE_PAIRS
Info: STRUCTURE SUMMARY:
Info: 2012 ATOMS
Info: 1375 BONDS
Info: 819 ANGLES
Info: 251 DIHEDRALS
Info: 22 IMPROPERS
Info: 0 CROSSTERMS
Info: 0 EXCLUSIONS
Info: 2 FIXED ATOMS
Info: 1961 RIGID BONDS
Info: 0 RIGID BONDS BETWEEN FIXED ATOMS
Info: 4069 DEGREES OF FREEDOM
Info: 687 HYDROGEN GROUPS
Info: 4 ATOMS IN LARGEST HYDROGEN GROUP
Info: 687 MIGRATION GROUPS
Info: 4 ATOMS IN LARGEST MIGRATION GROUP
Info: 0 HYDROGEN GROUPS WITH ALL ATOMS FIXED
Info: TOTAL MASS = 12185.6 amu
Info: TOTAL CHARGE = 6.70552e-08 e
Info: MASS DENSITY = 0.780678 g/cm^3
Info: ATOM DENSITY = 0.0776235 atoms/A^3
Info: REMOVING COM VELOCITY 0.151821 -0.0937284 -0.108612
Info: NONBONDED TABLE R-SQUARED SPACING: 0.0625
Info: NONBONDED TABLE SIZE: 705 POINTS
TCL: Minimizing for 100 steps
ETITLE: TS BOND ANGLE DIHED IMPRP ELECT VDW BOUNDARY MISC KINETIC TOTAL TEMP POTENTIAL TOTAL3 TEMPAVG PRESSURE GPRESSURE VOLUME PRESSAVG GPRESSAVG
ENERGY: 0 21.2366 49.6895 28.0386 3.3430 -5783.4943 518.7241 0.0000 0.0000 0.0000 -5162.4626 0.0000 -5162.4626 -5162.4626 0.0000 11400.4680 -1719.8446 25920.0000 11400.4680 -1719.8446
ENERGY: 20 188.7698 86.1114 26.8358 1.3675 -6294.0386 483.7310 0.0000 0.0000 0.0000 -5507.2231 0.0000 -5507.2231 -5507.2231 0.0000 -5022.7585 -3331.5106 25920.0000 -5022.7585 -3331.5106
ENERGY: 40 394.5252 366.7729 24.9637 1.8044 -6922.1694 389.3131 0.0000 0.0000 0.0000 -5744.7900 0.0000 -5744.7900 -5744.7900 0.0000 -10781.9867 -5871.8303 25920.0000 -10781.9867 -5871.8303
ENERGY: 60 202.6254 138.4406 23.9474 0.8319 -6798.7167 399.6927 0.0000 0.0000 0.0000 -6033.1787 0.0000 -6033.1787 -6033.1787 0.0000 -6595.1680 -6080.9371 25920.0000 -6595.1680 -6080.9371
ENERGY: 80 224.1256 155.8470 23.1651 0.9851 -7073.3668 410.0259 0.0000 0.0000 0.0000 -6259.2183 0.0000 -6259.2183 -6259.2183 0.0000 -7969.1107 -6419.7959 25920.0000 -7969.1107 -6419.7959
ENERGY: 100 231.7699 178.7525 22.4127 0.9033 -7281.1810 440.9910 0.0000 0.0000 0.0000 -6406.3517 0.0000 -6406.3517 -6406.3517 0.0000 -8546.3925 -6855.2154 25920.0000 -8546.3925 -6855.2154
TCL: Running for 99900 steps
ETITLE: TS BOND ANGLE DIHED IMPRP ELECT VDW BOUNDARY MISC KINETIC TOTAL TEMP POTENTIAL TOTAL3 TEMPAVG PRESSURE GPRESSURE VOLUME PRESSAVG GPRESSAVG
ENERGY: 1000 17.3881 43.3276 26.5039 2.6442 -7407.2569 759.0336 0.0000 0.0000 926.5596 -5631.7998 229.1797 -6558.3595 -5630.5777 198.5332 -124.5351 -91.3629 19421.9441 -17.4388 -17.4039
ENERGY: 21000 16.8656 62.8937 27.7382 6.3382 -6924.4818 651.7008 0.0000 0.0000 1260.1234 -4898.8220 311.6849 -6158.9454 -4896.2757 301.3170 1141.4998 1196.5500 19448.9039 -6.5288 -6.6389
ENERGY: 41000 14.4324 48.9198 30.9790 4.0340 -6886.4905 637.1638 0.0000 0.0000 1234.7946 -4916.1669 305.4200 -6150.9614 -4912.9498 296.3723 -42.8852 -1.6664 19569.6632 8.9437 9.3926
ENERGY: 60000 24.9686 58.8971 30.2656 5.9859 -6818.7096 637.2424 0.0000 0.0000 1191.0196 -4870.3305 294.5924 -6061.3501 -4867.1424 301.3745 374.7107 390.4371 19946.6928 33.1986 33.4036
ENERGY: 80000 24.0260 63.1351 26.9955 4.2134 -6835.4232 626.1385 0.0000 0.0000 1216.0195 -4874.8953 300.7760 -6090.9147 -4871.6217 299.5529 -499.1988 -450.8364 19994.2298 26.6993 26.4465
ENERGY: 100000 13.4071 60.0471 28.9562 2.7757 -6871.8070 647.2846 0.0000 0.0000 1240.8609 -4878.4753 306.9204 -6119.3362 -4875.5959 301.2086 491.2333 503.8132 20042.0159 6.0751 6.4578
