Info: SIMULATION PARAMETERS:
Info: TIMESTEP               0.5
Info: NUMBER OF STEPS        0
Info: STEPS PER CYCLE        10
Info: FIRST LDB TIMESTEP     50
Info: LAST LDB TIMESTEP     -1
Info: HOM BACKGROUND SCALING 1
Info: MIN ATOMS PER PATCH    40
Info: INITIAL TEMPERATURE    300
Info: CENTER OF MASS MOVING INITIALLY? NO
Info: DIELECTRIC             1
Info: EXCLUDE                SCALED ONE-FOUR
Info: 1-4 ELECTROSTATICS SCALED BY 1
Info: MODIFIED 1-4 VDW PARAMETERS WILL BE USED
Info: DCD FILENAME           vmineq.dcd
Info: DCD FREQUENCY          100
Info: DCD FIRST STEP         100
Info: XST FILENAME           vmineq.xst
Info: XST FREQUENCY          2000
Info: NO VELOCITY DCD OUTPUT
Info: NO FORCE DCD OUTPUT
Info: OUTPUT FILENAME        vmineq
Info: BINARY OUTPUT FILES WILL BE USED
Info: RESTART FILENAME       vmineq.restart
Info: RESTART FREQUENCY      2000
Info: BINARY RESTART FILES WILL BE USED
Info: SWITCHING ACTIVE
Info: SWITCHING ON           10
Info: SWITCHING OFF          12
Info: PAIRLIST DISTANCE      13.5
Info: PAIRLIST SHRINK RATE   0.01
Info: PAIRLIST GROW RATE     0.01
Info: PAIRLIST TRIGGER       0.3
Info: PAIRLISTS PER CYCLE    2
Info: PAIRLISTS ENABLED
Info: MARGIN                 0
Info: HYDROGEN GROUP CUTOFF  2.5
Info: PATCH DIMENSION        16
Info: ENERGY OUTPUT STEPS    2000
Info: CROSSTERM ENERGY INCLUDED IN DIHEDRAL
Info: TIMING OUTPUT STEPS    20000
Info: PRESSURE OUTPUT STEPS  2000
Info: FIXED ATOMS ACTIVE
Info: LANGEVIN DYNAMICS ACTIVE
Info: LANGEVIN TEMPERATURE   300
Info: LANGEVIN DAMPING COEFFICIENT IS 1 INVERSE PS
Info: LANGEVIN DYNAMICS NOT APPLIED TO HYDROGENS
Info: USING VERLET I (r-RESPA) MTS SCHEME.
Info: C1 SPLITTING OF LONG RANGE ELECTROSTATICS
Info: PLACING ATOMS IN PATCHES BY HYDROGEN GROUPS
Info: RIGID BONDS TO HYDROGEN : ALL
Info:         ERROR TOLERANCE : 1e-08
Info:          MAX ITERATIONS : 100
Info: RIGID WATER USING SETTLE ALGORITHM
Info: RANDOM NUMBER SEED     1363803720
Info: USE HYDROGEN BONDS?    NO
Info: COORDINATE PDB         nm.pdb
Info: STRUCTURE FILE         nm.psf
Info: PARAMETER file: CHARMM format!
Info: PARAMETERS             ../toppar/par_all27_prot_lipid.prm
Info: USING ARITHMETIC MEAN TO COMBINE L-J SIGMA PARAMETERS
Info: SUMMARY OF PARAMETERS:
Info: 180 BONDS
Info: 447 ANGLES
Info: 566 DIHEDRAL
Info: 46 IMPROPER
Info: 6 CROSSTERM
Info: 114 VDW
Info: 0 VDW_PAIRS
Info: 0 NBTHOLE_PAIRS
Info: STRUCTURE SUMMARY:
Info: 129 ATOMS
Info: 131 BONDS
Info: 231 ANGLES
Info: 338 DIHEDRALS
Info: 20 IMPROPERS
Info: 8 CROSSTERMS
Info: 0 EXCLUSIONS
Info: 2 FIXED ATOMS
Info: 59 RIGID BONDS
Info: 0 RIGID BONDS BETWEEN FIXED ATOMS
Info: 322 DEGREES OF FREEDOM
Info: 70 HYDROGEN GROUPS
Info: 4 ATOMS IN LARGEST HYDROGEN GROUP
Info: 70 MIGRATION GROUPS
Info: 4 ATOMS IN LARGEST MIGRATION GROUP
Info: 0 HYDROGEN GROUPS WITH ALL ATOMS FIXED
Info: TOTAL MASS = 984.01 amu
Info: TOTAL CHARGE = -1 e
Info: REMOVING COM VELOCITY 0.375665 -0.244832 0.227606
Info: NONBONDED TABLE R-SQUARED SPACING: 0.0625
Info: NONBONDED TABLE SIZE: 769 POINTS
TCL: Minimizing for 2000 steps
ETITLE: TS BOND ANGLE DIHED IMPRP ELECT VDW BOUNDARY MISC KINETIC TOTAL TEMP POTENTIAL TOTAL3 TEMPAVG
ENERGY: 0 82.1822 219.1232 36.3467 0.0354 11.8936 236.4978 0.0000 0.0000 0.0000 586.0789 0.0000 586.0789 586.0789 0.0000
ENERGY: 400 9.9159 24.6484 34.2780 1.9400 -71.5527 4.7938 0.0000 0.0000 0.0000 4.0234 0.0000 4.0234 4.0234 0.0000
ENERGY: 800 10.1022 26.5420 32.7446 1.5078 -84.0146 6.9095 0.0000 0.0000 0.0000 -6.2086 0.0000 -6.2086 -6.2086 0.0000
ENERGY: 1200 10.6580 27.1363 37.3002 2.6649 -98.1692 6.1659 0.0000 0.0000 0.0000 -14.2440 0.0000 -14.2440 -14.2440 0.0000
ENERGY: 1600 10.0962 25.3961 38.4249 2.6461 -101.7022 7.2721 0.0000 0.0000 0.0000 -17.8667 0.0000 -17.8667 -17.8667 0.0000
ENERGY: 2000 9.5767 24.6181 36.8709 2.4287 -108.7235 9.4199 0.0000 0.0000 0.0000 -25.8092 0.0000 -25.8092 -25.8092 0.0000
TCL: Running for 10000 steps
ETITLE: TS BOND ANGLE DIHED IMPRP ELECT VDW BOUNDARY MISC KINETIC TOTAL TEMP POTENTIAL TOTAL3 TEMPAVG
ENERGY: 2000 8.4334 24.5596 36.8647 2.4141 -106.4322 9.4803 0.0000 0.0000 0.0000 -24.6803 0.0000 -24.6803 -24.6808 0.0000
ENERGY: 4000 16.3466 41.8629 41.1466 6.6765 -111.4952 13.3158 0.0000 0.0000 46.1464 53.9996 144.2356 7.8531 53.9497 82.4589
ENERGY: 6000 19.6095 53.9097 44.6100 6.9792 -118.7360 15.4566 0.0000 0.0000 75.1098 96.9389 234.7638 21.8291 96.9731 181.5514
ENERGY: 8000 27.8836 69.3766 44.8601 5.7664 -111.5142 5.2313 0.0000 0.0000 78.0668 119.6706 244.0062 41.6038 119.7806 225.1197
ENERGY: 10000 24.9383 57.5053 54.5339 7.2471 -113.2931 16.6032 0.0000 0.0000 81.1908 128.7255 253.7707 47.5346 128.7413 261.0905
ENERGY: 12000 32.5199 57.6013 47.8021 7.6091 -108.2039 9.5298 0.0000 0.0000 90.2101 137.0684 281.9613 46.8584 137.0363 271.3607
